LAMMPS (21 Feb 2013)
# 3D copper block simulation
boundary    p p p
units       metal
atom_style  atomic

# geometry
read_data	data.pos
  triclinic box = (0 0 0) to (20.4495 17.7098 16.697) with tilt (10.2248 10.2248 5.90327)
  512 atoms

# EAM potential
pair_style  	eam/opt
pair_coeff   	* * cuu3.eam
neighbor       0.5 nsq
neigh_modify   every 1 delay 0 check yes

#Langevin random seed
variable r equal 57085
variable t equal 300
variable d equal 1

# initialize
velocity all create $t 28459 rot yes dist gaussian mom yes
velocity all create 300 28459 rot yes dist gaussian mom yes
reset_timestep 0

# fixes
fix      1 all npt temp $t $t $d iso 1. 1. 1. pchain 8 drag 1.0
fix      1 all npt temp 300 $t $d iso 1. 1. 1. pchain 8 drag 1.0
fix      1 all npt temp 300 300 $d iso 1. 1. 1. pchain 8 drag 1.0
fix      1 all npt temp 300 300 1 iso 1. 1. 1. pchain 8 drag 1.0
fix      2 all phonon 10 50000 500000 map.in CuPhonon

#
timestep 2e-3

# output
#                    1    2    3  4  5     6   7  8  9  10 11 12
thermo_style  custom step temp pe ke press vol lx ly lz xy xz yz
thermo  100

restart 2000000 restart.one restart.two

# execution
run 	 6500000
Step Temp PotEng KinEng Press Volume Lx Ly Lz Xy Xz Yz
0          300     -1812.48     19.81558    3500.1579    6046.9291    20.449528    17.709811     16.69697    10.224764    10.224764    5.9032703
Averages over the last 6 of 11 rows, steps 500 to 1000:
Temp PotEng KinEng Press Volume Lx Ly Lz Xy Xz Yz
164.438 -1800.96 10.8615 -1180.31 6102.6 20.5121 17.764 16.748 10.256 10.256 5.92133
...
Loop time of 3793.94 on 2 procs for 6500000 steps with 512 atoms

Pair  time (%) = 2249.87 (59.3018)
Neigh time (%) = 1155.6 (30.4591)
Comm  time (%) = 152.897 (4.03002)
Outpt time (%) = 3.23674 (0.0853134)
Other time (%) = 232.331 (6.12375)

write_restart Restart.final
