LAMMPS (18 Feb 2013)
# 2d Lennard-Jones melt and subsequent energy minimization

units		lj
dimension	2
atom_style	atomic

lattice		sq2 0.8442
Lattice spacing in x,y,z = 1.53919 1.53919 1.53919
region		box block 0 20 0 20 -0.1 0.1
create_box	1 box
Created orthogonal box = (0 0 -0.153919) to (30.7838 30.7838 0.153919)
create_atoms	1 box
Created 800 atoms
mass		1 1.0

velocity	all create 5.0 87287 loop geom

pair_style	lj/cut 2.5
pair_coeff	1 1 1.0 1.0 2.5
pair_modify	shift yes

neighbor	0.3 bin
neigh_modify	delay 0 every 1 check yes

fix		1 all nve
fix		2 all enforce2d

#dump		1 all atom 100 dump.min

#dump		1 all image 50 image.*.jpg type type #		zoom 1.6 adiam 1.5
#dump_modify	1 pad 4

thermo		100

run		1000
Step Temp E_pair E_mol TotEng Press
0            5    -2.461717            0     2.532033    5.0190509
Averages over the last 6 of 11 rows, steps 500 to 1000:
Temp E_pair E_mol TotEng Press
3.32649 -0.790728 0 2.53161 15.5924
Loop time of 0.067068 on 4 procs for 1000 steps with 800 atoms

Pair  time (%) = 0.0325241 (48.4942)
Neigh time (%) = 0.0122744 (18.3014)
Comm  time (%) = 0.0142534 (21.2521)
Outpt time (%) = 0.000184894 (0.275681)
Other time (%) = 0.00783122 (11.6765)

neigh_modify	delay 0 every 1 check yes

#dump_modify	1 every 25

thermo		50
minimize	1.0e-6 0.001 1000 10000
Step Temp E_pair E_mol TotEng Press
1000    3.2803075  -0.74465936            0    2.5315477    15.835597
Loop time of 0.103431 on 4 procs for 365 steps with 800 atoms

Minimization stats:
  Stopping criterion = energy tolerance
  Energy initial, next-to-last, final =
  Force two-norm initial, final = 2006.88 0.477401
  Force max component initial, final = 395.193 0.0879763
  Final line search alpha, max atom move = 0.00334856 0.000294593
  Iterations, force evaluations = 365 1437

Pair  time (%) = 0.0645013 (62.3616)
Neigh time (%) = 0.0046317 (4.47805)
Comm  time (%) = 0.0178814 (17.2882)
Outpt time (%) = 0.000117421 (0.113526)
Other time (%) = 0.0162994 (15.7587)
