LAMMPS (1 Feb 2014)
# 2d Lennard-Jones melt and subsequent energy minimization

units		lj
dimension	2
atom_style	atomic

lattice		sq2 0.8442
Lattice spacing in x,y,z = 1.53919 1.53919 1.53919
region		box block 0 20 0 20 -0.1 0.1
create_box	1 box
Created orthogonal box = (0 0 -0.153919) to (30.7838 30.7838 0.153919)
create_atoms	1 box
Created 800 atoms
mass		1 1.0

velocity	all create 5.0 87287 loop geom

pair_style	lj/cut 2.5
pair_coeff	1 1 1.0 1.0 2.5
pair_modify	shift yes

neighbor	0.3 bin
neigh_modify	delay 0 every 1 check yes

fix		1 all nve
fix		2 all enforce2d

#dump		1 all atom 500 dump.min

#dump		2 all image 500 image.*.jpg type type #		zoom 1.6 adiam 1.5
#dump_modify	2 pad 4

#dump		3 all movie 500 movie.mpg type type #		zoom 1.6 adiam 1.5
#dump_modify	3 pad 4

thermo		100

run		1000
Step Temp E_pair E_mol TotEng Press
0            5    -2.461717            0     2.532033    5.0190509
Averages over the last 6 of 11 rows, steps 500 to 1000:
Temp E_pair E_mol TotEng Press
3.32649 -0.790728 0 2.53161 15.5924
Loop time of 0.0672228 on 4 procs for 1000 steps with 800 atoms

Pair  time (%) = 0.0325756 (48.4591)
Neigh time (%) = 0.012749 (18.9652)
Comm  time (%) = 0.0136126 (20.25)
Outpt time (%) = 0.000190377 (0.283203)
Other time (%) = 0.00809526 (12.0424)

neigh_modify	delay 0 every 1 check yes

velocity	all create 0.0 1
thermo		50
minimize	1.0e-6 0.001 1000 10000
Step Temp E_pair E_mol TotEng Press
1000            0  -0.74465936            0  -0.74465936    13.069823
Loop time of 0.103336 on 4 procs for 365 steps with 800 atoms

Minimization stats:
  Stopping criterion = energy tolerance
  Energy initial, next-to-last, final =
  Force two-norm initial, final = 2006.88 0.477401
  Force max component initial, final = 395.193 0.0879763
  Final line search alpha, max atom move = 0.00334856 0.000294593
  Iterations, force evaluations = 365 1437

Pair  time (%) = 0.0650657 (62.9653)
Neigh time (%) = 0.00482118 (4.66555)
Comm  time (%) = 0.0168168 (16.2739)
Outpt time (%) = 0.000125468 (0.121417)
Other time (%) = 0.0165067 (15.9739)

fix             3 all box/relax x 1.0 y 2.0 vmax 1.0e-4 nreset 100

thermo_style    custom step temp pe pxx pyy pxy

min_modify      line quadratic
minimize	0.0 1.0e-6 10000 100000
Step Temp PotEng Pxx Pyy Pxy
1365            0    -2.879076   -1.0493949   -1.1436932  0.037565201
Averages over the last 101 of 202 rows, steps 6400 to 11365:
Temp PotEng Pxx Pyy Pxy
0 -2.91549 1.00202 2.0021 -0.000520084
Loop time of 1.01754 on 4 procs for 10000 steps with 800 atoms

Minimization stats:
  Stopping criterion = max iterations
  Energy initial, next-to-last, final =
  Force two-norm initial, final = 3556.23 12.2587
  Force max component initial, final = 2979.1 9.18102
  Final line search alpha, max atom move = 2.99243e-05 0.000274736
  Iterations, force evaluations = 10000 10062

Pair  time (%) = 0.498018 (48.9434)
Neigh time (%) = 0.0017876 (0.175679)
Comm  time (%) = 0.107307 (10.5457)
Outpt time (%) = 0.00365829 (0.359524)
Other time (%) = 0.406768 (39.9757)
