LAMMPS (1 Feb 2014)
# Tethered nanorods

atom_style	molecular

read_data	data.rigid.tnr
  orthogonal box = (-31.122 -31.122 -31.122) to (31.122 31.122 31.122)
  reading atoms ...
  5600 atoms
  scanning bonds ...
  reading bonds ...
  1600 bonds

# Specify bond parameters

bond_style	fene
bond_coeff	1 30.0 1.5 1.0 1.0

special_bonds	fene

# Specify initial velocities

velocity	all create 1.4 109345

# Specify rigid components

group		rods type 2
4000 atoms in group rods
group		tethers	subtract all rods
1600 atoms in group tethers

neigh_modify 	exclude	molecule rods delay 0 every 1

# Specify the pair potentials

pair_style	lj/cut	2.5
pair_modify	shift	yes
pair_coeff	* * 1.0	1.0 1.122
pair_coeff	2 2 1.0 1.0 2.5

# Specify output

thermo	100
thermo_style custom step temp pe etotal press enthalpy lx ly lz pxx pyy pzz
thermo_modify flush yes lost warn

timestep	0.005

fix	1	rods	rigid molecule
800 rigid bodies with 4000 atoms
fix	2	tethers	nve
fix	3	all	langevin 1.4 1.4 1.0 437624

run	5000
Step Temp PotEng TotEng Press Enthalpy Lx Ly Lz Pxx Pyy Pzz
0    1.3963219    5.9478449    7.0445809  0.048565317      9.13595       62.244       62.244       62.244 0.0091983659   0.11850113  0.017996458
Averages over the last 26 of 51 rows, steps 2500 to 5000:
Temp PotEng TotEng Press Enthalpy Lx Ly Lz Pxx Pyy Pzz
1.41366 5.91356 7.02392 0.00415217 7.20272 62.244 62.244 62.244 0.0046095 0.00337168 0.00447535
Loop time of 6.35156 on 1 procs for 5000 steps with 5600 atoms

Pair  time (%) = 0.478212 (7.52904)
Bond  time (%) = 0.222193 (3.49824)
Neigh time (%) = 1.2401 (19.5243)
Comm  time (%) = 0.172963 (2.72315)
Outpt time (%) = 0.00360727 (0.0567935)
Other time (%) = 4.23449 (66.6685)

# Replace fix rigid and fix langevin with new ones

unfix	1
unfix	3

fix	3	tethers langevin 1.4 1.4 1.0 198450

# Test different integrators for rods

fix	1 rods	rigid/nve molecule
800 rigid bodies with 4000 atoms
print 	"rigid/nve"
rigid/nve
run	1000
Step Temp PotEng TotEng Press Enthalpy Lx Ly Lz Pxx Pyy Pzz
5000    1.4293045    5.9102892    7.0329313  0.028061066    8.2413255       62.244       62.244       62.244  0.017765452  0.040562905   0.02585484
Averages over the last 6 of 11 rows, steps 5500 to 6000:
Temp PotEng TotEng Press Enthalpy Lx Ly Lz Pxx Pyy Pzz
1.41116 5.87941 6.9878 0.0026604 7.10236 62.244 62.244 62.244 0.00134472 0.00235514 0.00428134
Loop time of 1.27908 on 1 procs for 1000 steps with 5600 atoms

Pair  time (%) = 0.137631 (10.7602)
Bond  time (%) = 0.0451553 (3.53029)
Neigh time (%) = 0.276716 (21.634)
Comm  time (%) = 0.0356052 (2.78366)
Outpt time (%) = 0.000710726 (0.0555654)
Other time (%) = 0.783261 (61.2363)

unfix	1

fix	1 rods	rigid/nvt molecule temp 1.4 1.4 1.0
800 rigid bodies with 4000 atoms
print 	"rigid/nvt"
rigid/nvt
run	1000
Step Temp PotEng TotEng Press Enthalpy Lx Ly Lz Pxx Pyy Pzz
6000    1.4274747    5.8829671     7.004172  -0.02124798    6.0891699       62.244       62.244       62.244 -0.0035029341 -0.035545622 -0.024695385
Averages over the last 6 of 11 rows, steps 6500 to 7000:
Temp PotEng TotEng Press Enthalpy Lx Ly Lz Pxx Pyy Pzz
1.40345 5.8839 6.98623 0.00421503 7.16775 62.244 62.244 62.244 0.00474353 0.00366534 0.00423622
Loop time of 1.30653 on 1 procs for 1000 steps with 5600 atoms

Pair  time (%) = 0.140375 (10.7442)
Bond  time (%) = 0.0453455 (3.47069)
Neigh time (%) = 0.278969 (21.3519)
Comm  time (%) = 0.0354125 (2.71043)
Outpt time (%) = 0.000714064 (0.0546535)
Other time (%) = 0.805712 (61.6681)

unfix	1

compute	myTemp all temp

fix	1 rods	rigid/npt molecule temp 1.4 1.4 1.0 iso 0.05 0.05 1.0         dilate all
800 rigid bodies with 4000 atoms
print 	"rigid/npt iso"
rigid/npt iso
fix_modify 1 temp myTemp

run	1000
Step Temp PotEng TotEng Press Enthalpy Lx Ly Lz Pxx Pyy Pzz
7000    1.4296767    5.8776376    7.0005721  0.012931516    7.5574422       62.244       62.244       62.244 -0.033811545  0.071351891 0.0012542007
Averages over the last 6 of 11 rows, steps 7500 to 8000:
Temp PotEng TotEng Press Enthalpy Lx Ly Lz Pxx Pyy Pzz
1.39176 5.79089 6.88405 0.010774 7.11109 48.734 48.734 48.734 0.01078 0.00989357 0.0116484
Loop time of 2.1421 on 1 procs for 1000 steps with 5600 atoms

Pair  time (%) = 0.243607 (11.3723)
Bond  time (%) = 0.067399 (3.1464)
Neigh time (%) = 0.578037 (26.9846)
Comm  time (%) = 0.0550971 (2.5721)
Outpt time (%) = 0.000721693 (0.0336909)
Other time (%) = 1.19724 (55.8909)

unfix	1

fix	1 rods	rigid/npt molecule temp 1.4 1.4 1.0 x 0.05 0.05 1.0 dilate all
800 rigid bodies with 4000 atoms
print 	"rigid/npt x"
rigid/npt x
run	1000
Step Temp PotEng TotEng Press Enthalpy Lx Ly Lz Pxx Pyy Pzz
8000    1.3909989    5.7527072    6.8452623 -0.013693646    6.6132941    45.607102    45.607102    45.607102 -0.043122633 -0.045235911  0.047277607
Averages over the last 6 of 11 rows, steps 8500 to 9000:
Temp PotEng TotEng Press Enthalpy Lx Ly Lz Pxx Pyy Pzz
1.41035 5.70582 6.81357 0.0109251 6.96214 36.8 45.6071 45.6071 0.0181963 0.010009 0.00457015
Loop time of 2.23572 on 1 procs for 1000 steps with 5600 atoms

Pair  time (%) = 0.329728 (14.7482)
Bond  time (%) = 0.0679741 (3.04037)
Neigh time (%) = 0.547063 (24.4692)
Comm  time (%) = 0.0531805 (2.37867)
Outpt time (%) = 0.000710964 (0.0318003)
Other time (%) = 1.23706 (55.3317)

unfix	1

fix	1 rods	rigid/nph molecule iso 0.05 0.05 1.0 dilate all
800 rigid bodies with 4000 atoms
print 	"rigid/nph iso"
rigid/nph iso
run	1000
Step Temp PotEng TotEng Press Enthalpy Lx Ly Lz Pxx Pyy Pzz
9000    1.4232531    5.6865082    6.8043973 -0.045897712    6.2172112     34.44354    45.607102    45.607102  -0.13827955 -0.060145768  0.060732183
Averages over the last 6 of 11 rows, steps 9500 to 10000:
Temp PotEng TotEng Press Enthalpy Lx Ly Lz Pxx Pyy Pzz
1.47341 5.605 6.76229 0.0277237 7.00757 30.5261 40.42 40.42 0.0284884 0.0278312 0.0268516
Loop time of 2.46339 on 1 procs for 1000 steps with 5600 atoms

Pair  time (%) = 0.418965 (17.0077)
Bond  time (%) = 0.0689692 (2.79977)
Neigh time (%) = 0.69069 (28.0382)
Comm  time (%) = 0.0612285 (2.48554)
Outpt time (%) = 0.00073576 (0.0298677)
Other time (%) = 1.2228 (49.639)

unfix	1

fix	1 rods	rigid/nph molecule x 0.05 0.05 1.0 y 0.05 0.05 1.0         couple xy dilate all
800 rigid bodies with 4000 atoms
print 	"rigid/nph xy couple"
rigid/nph xy couple
run	1000
Step Temp PotEng TotEng Press Enthalpy Lx Ly Lz Pxx Pyy Pzz
10000    1.4702912    5.5609742    6.7158092  0.072285735    7.2966186    29.496685    39.056912    39.056912    0.0517015   0.12420995  0.040945755
Averages over the last 6 of 11 rows, steps 10500 to 11000:
Temp PotEng TotEng Press Enthalpy Lx Ly Lz Pxx Pyy Pzz
1.4737 5.47049 6.628 0.0206245 6.76663 27.0015 35.753 39.0569 0.0179552 0.017776 0.0261422
Loop time of 2.65811 on 1 procs for 1000 steps with 5600 atoms

Pair  time (%) = 0.524128 (19.7181)
Bond  time (%) = 0.068589 (2.58037)
Neigh time (%) = 0.759783 (28.5836)
Comm  time (%) = 0.0634546 (2.38721)
Outpt time (%) = 0.000737429 (0.0277426)
Other time (%) = 1.24142 (46.7031)
