LAMMPS (1 Feb 2014)
# Tethered nanorods

atom_style	molecular

read_data	data.rigid.tnr
  orthogonal box = (-31.122 -31.122 -31.122) to (31.122 31.122 31.122)
  reading atoms ...
  5600 atoms
  scanning bonds ...
  reading bonds ...
  1600 bonds

# Specify bond parameters

bond_style	fene
bond_coeff	1 30.0 1.5 1.0 1.0

special_bonds	fene

# Specify initial velocities

velocity	all create 1.4 109345

# Specify rigid components

group		rods type 2
4000 atoms in group rods
group		tethers	subtract all rods
1600 atoms in group tethers

neigh_modify 	exclude	molecule rods delay 0 every 1

# Specify the pair potentials

pair_style	lj/cut	2.5
pair_modify	shift	yes
pair_coeff	* * 1.0	1.0 1.122
pair_coeff	2 2 1.0 1.0 2.5

# Specify output

thermo	100
thermo_style custom step temp pe etotal press enthalpy lx ly lz pxx pyy pzz
thermo_modify flush yes lost warn

timestep	0.005

fix	1	rods	rigid molecule
800 rigid bodies with 4000 atoms
fix	2	tethers	nve
fix	3	all	langevin 1.4 1.4 1.0 437624

run	5000
Step Temp PotEng TotEng Press Enthalpy Lx Ly Lz Pxx Pyy Pzz
0    1.3963219    5.9478449    7.0445809  0.048565317      9.13595       62.244       62.244       62.244 0.0091983659   0.11850113  0.017996458
Averages over the last 26 of 51 rows, steps 2500 to 5000:
Temp PotEng TotEng Press Enthalpy Lx Ly Lz Pxx Pyy Pzz
1.40084 5.90807 7.00835 0.00320482 7.14636 62.244 62.244 62.244 0.00374016 0.00338726 0.00248703
Loop time of 3.20721 on 4 procs for 5000 steps with 5600 atoms

Pair  time (%) = 0.116136 (3.62109)
Bond  time (%) = 0.0531921 (1.65852)
Neigh time (%) = 0.438128 (13.6607)
Comm  time (%) = 0.246661 (7.69083)
Outpt time (%) = 0.00308365 (0.0961474)
Other time (%) = 2.35001 (73.2727)

# Replace fix rigid and fix langevin with new ones

unfix	1
unfix	3

fix	3	tethers langevin 1.4 1.4 1.0 198450

# Test different integrators for rods

fix	1 rods	rigid/nve molecule
800 rigid bodies with 4000 atoms
print 	"rigid/nve"
rigid/nve
run	1000
Step Temp PotEng TotEng Press Enthalpy Lx Ly Lz Pxx Pyy Pzz
5000    1.4066006    5.8998845    7.0046939  0.032740437    8.4145959       62.244       62.244       62.244  0.045650084  0.034743967  0.017827261
Averages over the last 6 of 11 rows, steps 5500 to 6000:
Temp PotEng TotEng Press Enthalpy Lx Ly Lz Pxx Pyy Pzz
1.39109 5.88642 6.97905 0.00488183 7.18927 62.244 62.244 62.244 0.00455246 0.00610354 0.0039895
Loop time of 0.71103 on 4 procs for 1000 steps with 5600 atoms

Pair  time (%) = 0.0324474 (4.56343)
Bond  time (%) = 0.0106753 (1.50138)
Neigh time (%) = 0.100071 (14.0741)
Comm  time (%) = 0.0545349 (7.66984)
Outpt time (%) = 0.000602841 (0.0847842)
Other time (%) = 0.512699 (72.1065)

unfix	1

fix	1 rods	rigid/nvt molecule temp 1.4 1.4 1.0
800 rigid bodies with 4000 atoms
print 	"rigid/nvt"
rigid/nvt
run	1000
Step Temp PotEng TotEng Press Enthalpy Lx Ly Lz Pxx Pyy Pzz
6000    1.3754553    5.8937449    6.9740914  0.049674573    9.1132283       62.244       62.244       62.244  0.056393855  0.044956749  0.047673114
Averages over the last 6 of 11 rows, steps 6500 to 7000:
Temp PotEng TotEng Press Enthalpy Lx Ly Lz Pxx Pyy Pzz
1.4114 5.89165 7.00023 0.00371385 7.16016 62.244 62.244 62.244 0.00406426 0.00456067 0.00251662
Loop time of 0.724545 on 4 procs for 1000 steps with 5600 atoms

Pair  time (%) = 0.0333842 (4.60761)
Bond  time (%) = 0.0107084 (1.47795)
Neigh time (%) = 0.0995998 (13.7465)
Comm  time (%) = 0.0522026 (7.20488)
Outpt time (%) = 0.000613034 (0.0846095)
Other time (%) = 0.528037 (72.8784)

unfix	1

compute	myTemp all temp

fix	1 rods	rigid/npt molecule temp 1.4 1.4 1.0 iso 0.05 0.05 1.0         dilate all
800 rigid bodies with 4000 atoms
print 	"rigid/npt iso"
rigid/npt iso
fix_modify 1 temp myTemp

run	1000
Step Temp PotEng TotEng Press Enthalpy Lx Ly Lz Pxx Pyy Pzz
7000    1.4183184    5.8899892    7.0040023 0.0050486391    7.2214119       62.244       62.244       62.244  0.043816651 -0.087155941  0.058485207
Averages over the last 6 of 11 rows, steps 7500 to 8000:
Temp PotEng TotEng Press Enthalpy Lx Ly Lz Pxx Pyy Pzz
1.41213 5.80219 6.91135 0.00981814 7.11469 48.6871 48.6871 48.6871 0.00888283 0.00916035 0.0114112
Loop time of 1.04095 on 4 procs for 1000 steps with 5600 atoms

Pair  time (%) = 0.0613976 (5.89824)
Bond  time (%) = 0.0165009 (1.58518)
Neigh time (%) = 0.201774 (19.3837)
Comm  time (%) = 0.0760022 (7.30125)
Outpt time (%) = 0.000428915 (0.0412043)
Other time (%) = 0.684844 (65.7904)

unfix	1

fix	1 rods	rigid/npt molecule temp 1.4 1.4 1.0 x 0.05 0.05 1.0 dilate all
800 rigid bodies with 4000 atoms
print 	"rigid/npt x"
rigid/npt x
run	1000
Step Temp PotEng TotEng Press Enthalpy Lx Ly Lz Pxx Pyy Pzz
8000    1.3910325    5.7775053    6.8700867  0.068684018    8.0292954    45.551007    45.551007    45.551007 0.0075744454   0.11785739  0.080620215
Averages over the last 6 of 11 rows, steps 8500 to 9000:
Temp PotEng TotEng Press Enthalpy Lx Ly Lz Pxx Pyy Pzz
1.40513 5.72328 6.82693 0.0192491 7.08793 36.8172 45.551 45.551 0.0195037 0.020522 0.0177215
Loop time of 1.08382 on 4 procs for 1000 steps with 5600 atoms

Pair  time (%) = 0.0826703 (7.62768)
Bond  time (%) = 0.0164793 (1.52048)
Neigh time (%) = 0.202493 (18.6832)
Comm  time (%) = 0.0888866 (8.20123)
Outpt time (%) = 0.000417709 (0.0385405)
Other time (%) = 0.692874 (63.9288)

unfix	1

fix	1 rods	rigid/nph molecule iso 0.05 0.05 1.0 dilate all
800 rigid bodies with 4000 atoms
print 	"rigid/nph iso"
rigid/nph iso
run	1000
Step Temp PotEng TotEng Press Enthalpy Lx Ly Lz Pxx Pyy Pzz
9000     1.431654    5.6938727    6.8183602   0.01143345    6.9642163    34.430181    45.551007    45.551007  0.087625543  -0.18424224   0.13091705
Averages over the last 6 of 11 rows, steps 9500 to 10000:
Temp PotEng TotEng Press Enthalpy Lx Ly Lz Pxx Pyy Pzz
1.47776 5.5847 6.7454 0.0331158 7.04445 30.4966 40.3469 40.3469 0.0312329 0.0342185 0.033896
Loop time of 1.14607 on 4 procs for 1000 steps with 5600 atoms

Pair  time (%) = 0.107624 (9.39068)
Bond  time (%) = 0.0165663 (1.44549)
Neigh time (%) = 0.246527 (21.5107)
Comm  time (%) = 0.0994916 (8.68113)
Outpt time (%) = 0.000405192 (0.035355)
Other time (%) = 0.675454 (58.9367)

unfix	1

fix	1 rods	rigid/nph molecule x 0.05 0.05 1.0 y 0.05 0.05 1.0         couple xy dilate all
800 rigid bodies with 4000 atoms
print 	"rigid/nph xy couple"
rigid/nph xy couple
run	1000
Step Temp PotEng TotEng Press Enthalpy Lx Ly Lz Pxx Pyy Pzz
10000    1.4606684    5.5590139    6.7062906 -0.054323908    6.2711839    29.482105     39.00472     39.00472  -0.13889514  0.022522203 -0.046598788
Averages over the last 6 of 11 rows, steps 10500 to 11000:
Temp PotEng TotEng Press Enthalpy Lx Ly Lz Pxx Pyy Pzz
1.48103 5.48137 6.64463 0.0228331 6.80199 26.9831 35.6986 39.0047 0.0320368 0.021218 0.0152445
Loop time of 1.19108 on 4 procs for 1000 steps with 5600 atoms

Pair  time (%) = 0.133478 (11.2065)
Bond  time (%) = 0.0166689 (1.39948)
Neigh time (%) = 0.258172 (21.6755)
Comm  time (%) = 0.104376 (8.76311)
Outpt time (%) = 0.000403106 (0.0338438)
Other time (%) = 0.677981 (56.9216)
