LAMMPS (10 Sep 2013)
# sample LAMMPS input script for viscosity of 2d LJ liquid
# Muller-Plathe via fix viscosity

# settings

variable	x equal 20
variable	y equal 20

variable	rho equal 0.6
variable        t equal 1.0
variable	rc equal 2.5

# problem setup

units		lj
dimension	2
atom_style	atomic
neigh_modify	delay 0 every 1

lattice         sq2 0.5999999999999999778
Lattice spacing in x,y,z = 1.82574 1.82574 1.82574
region          simbox block 0 $x 0 $y -0.1 0.1
region          simbox block 0 20 0 $y -0.1 0.1
region          simbox block 0 20 0 20 -0.1 0.1
create_box      1 simbox
Created orthogonal box = (0 0 -0.182574) to (36.5148 36.5148 0.182574)
create_atoms    1 box
Created 800 atoms

pair_style      lj/cut 2.5
pair_coeff      * * 1 1

mass            * 1.0
velocity        all create $t 97287
velocity        all create 1 97287

fix             1 all nve
fix	        2 all langevin $t $t 0.1 498094
fix	        2 all langevin 1 $t 0.1 498094
fix	        2 all langevin 1 1 0.1 498094
fix	        3 all enforce2d

# equilibration run

thermo          1000
run	        5000
Step Temp E_pair E_mol TotEng Press
0            1     -1.56492            0     -0.56617    -1.535262
Loop time of 0.942546 on 1 procs for 5000 steps with 800 atoms

Pair  time (%) = 0.528146 (56.0339)
Neigh time (%) = 0.111906 (11.8728)
Comm  time (%) = 0.0176415 (1.87169)
Outpt time (%) = 5.19753e-05 (0.00551435)
Other time (%) = 0.284801 (30.2161)

unfix		2

# turn on Muller-Plathe driving force and equilibrate some more

velocity	all scale $t
velocity	all scale 1

fix		4 all viscosity 100 x y 20
fix		5 all ave/spatial 20 50 1000 y center 0.05 vx 		  units reduced file profile.mp.2d

# equilibration run

variable	dVx equal f_5[11][3]-f_5[1][3]
variable	dVx2 equal f_5[11][3]-f_5[1][3]

thermo          1000
thermo_style	custom step temp epair etotal press f_4 v_dVx
run		20000
Step Temp E_pair TotEng Press 4 dVx
5000            1   -1.6155055  -0.61675549   0.82879157            0            0
Averages over the last 11 of 21 rows, steps 15000 to 25000:
Temp E_pair TotEng Press 4 dVx
1.01232 -1.62787 -0.616815 0.876467 -433.179 1.42996
Loop time of 3.06212 on 1 procs for 20000 steps with 800 atoms

Pair  time (%) = 2.12557 (69.4151)
Neigh time (%) = 0.477372 (15.5896)
Comm  time (%) = 0.0730796 (2.38657)
Outpt time (%) = 0.000255585 (0.00834665)
Other time (%) = 0.385842 (12.6005)

# data gathering run
# reset fix viscosity to zero flux accumulation

unfix		4
fix		4 all viscosity 100 x y 20

variable	visc equal -(f_4/(2*(step*0.005-125)*lx+1.0e-10))/(v_dVx/(ly/2))
fix		vave all ave/time 1000 1 1000 v_visc ave running start 26000

thermo_style	custom step temp f_4 v_dVx v_visc f_vave

# only need to run for 5000 steps to make a good 100-frame movie

#dump	        1 all custom 50 dump.mp.2d id type x y z vx

#dump		1 all image 50 image.*.jpg vx type zoom 1.6 adiam 1.2
#dump_modify	1 pad 5 amap -0.7 0.7 ca 0.0 2 min blue max red

run	        50000
Step Temp 4 dVx visc vave
25000   0.98809909            0    1.4440512           -0            0
Averages over the last 26 of 51 rows, steps 50000 to 75000:
Temp 4 dVx visc vave
1.00709 -1024.96 1.34026 1.02457 0.98018
Loop time of 7.65917 on 1 procs for 50000 steps with 800 atoms

Pair  time (%) = 5.31327 (69.3714)
Neigh time (%) = 1.19582 (15.6129)
Comm  time (%) = 0.183408 (2.39462)
Outpt time (%) = 0.000780344 (0.0101884)
Other time (%) = 0.965895 (12.611)
