LAMMPS (10 Sep 2013)
# sample LAMMPS input script for viscosity of 2d LJ liquid
# NEMD via fix deform and fix nvt/sllod

# settings

variable	x equal 20
variable	y equal 20

variable	rho equal 0.6
variable        t equal 1.0
variable	rc equal 2.5

variable	srate equal 2.7

# problem setup

units		lj
dimension	2
atom_style	atomic
neigh_modify	delay 0 every 1

# problem setup

lattice         sq2 0.5999999999999999778
Lattice spacing in x,y,z = 1.82574 1.82574 1.82574
region          simbox prism 0 $y 0 $y -0.1 0.1 0.0 0.0 0.0
region          simbox prism 0 20 0 $y -0.1 0.1 0.0 0.0 0.0
region          simbox prism 0 20 0 20 -0.1 0.1 0.0 0.0 0.0
create_box      1 simbox
Created triclinic box = (0 0 -0.182574) to (36.5148 36.5148 0.182574) with tilt (0 0 0)
create_atoms    1 box
Created 800 atoms

pair_style      lj/cut 2.5
pair_coeff      * * 1 1

mass            * 1.0
velocity        all create $t 97287
velocity        all create 1 97287

fix             1 all nve
fix	        2 all langevin $t $t 0.1 498094
fix	        2 all langevin 1 $t 0.1 498094
fix	        2 all langevin 1 1 0.1 498094
fix	        3 all enforce2d

# equilibration run

thermo          1000
run	        5000
Step Temp E_pair E_mol TotEng Press
0            1     -1.56492            0     -0.56617    -1.535262
Loop time of 0.995848 on 1 procs for 5000 steps with 800 atoms

Pair  time (%) = 0.530232 (53.2443)
Neigh time (%) = 0.155753 (15.6403)
Comm  time (%) = 0.0214312 (2.15206)
Outpt time (%) = 5.38826e-05 (0.00541073)
Other time (%) = 0.288377 (28.958)

unfix  	        1
unfix		2

# turn on NEMD shear and equilibrate some more

velocity	all scale $t
velocity	all scale 1

variable	xyrate equal 2.7000000000000001776/lx

fix		1 all nvt/sllod temp $t $t 0.1
fix		1 all nvt/sllod temp 1 $t 0.1
fix		1 all nvt/sllod temp 1 1 0.1
fix		2 all deform 1 xy erate 0.07394254526319743448 remap v
fix		4 all ave/spatial 20 250 5000 y center 0.05 vx 		  units reduced file profile.nemd.2d

compute		usual all temp
compute		tilt all temp/deform

thermo          1000
thermo_style	custom step temp c_usual epair etotal press pxy
thermo_modify	temp tilt
run		50000
Step Temp usual E_pair TotEng Press Pxy
5000    2.2074694            1   -1.6087309   0.59597912    1.6684031  -0.13173607
Averages over the last 26 of 51 rows, steps 30000 to 55000:
Temp usual E_pair TotEng Press Pxy
0.999613 1.85947 -1.60646 -0.608101 0.958001 -0.0883195
Loop time of 13.2512 on 1 procs for 50000 steps with 800 atoms

Pair  time (%) = 5.62991 (42.486)
Neigh time (%) = 3.31133 (24.9889)
Comm  time (%) = 0.333608 (2.51757)
Outpt time (%) = 0.00183129 (0.0138198)
Other time (%) = 3.97453 (29.9937)

# data gathering run

variable	visc equal -pxy/(v_srate/ly)
fix		vave all ave/time 10 100 1000 v_visc ave running start 56000

thermo_style	custom step temp press pxy v_visc f_vave
thermo_modify	temp tilt

#dump	        1 all custom 10 dump.nemd.2d id type x y z vx

run		50000
Step Temp Press Pxy visc vave
55000    1.0215148   0.98406243 -0.015573121    0.2106111            0
Averages over the last 26 of 51 rows, steps 80000 to 105000:
Temp Press Pxy visc vave
1.00106 0.991633 -0.0808389 1.09327 1.19623
Loop time of 13.826 on 1 procs for 50000 steps with 800 atoms

Pair  time (%) = 5.72616 (41.4159)
Neigh time (%) = 3.64084 (26.3333)
Comm  time (%) = 0.359706 (2.60167)
Outpt time (%) = 0.0011127 (0.00804788)
Other time (%) = 4.09817 (29.6411)
