LAMMPS (18 Feb 2013)
# RESquared ellipsoids in LJ background fluid

units	     lj
atom_style   ellipsoid
dimension    2

lattice	     sq 0.02
Lattice spacing in x,y,z = 7.07107 7.07107 7.07107
region	     box block 0 20 0 20 -0.5 0.5
create_box   2 box
Created orthogonal box = (0 0 -3.53553) to (141.421 141.421 3.53553)
create_atoms 1 box
Created 400 atoms

set	     group all type/fraction 2 0.1 95392
  45 settings made for type/fraction
set 	     type 1 mass 1.0
  355 settings made for mass
set 	     type 2 mass 1.5
  45 settings made for mass
set 	     type 1 shape 1 1 1
  355 settings made for shape
set 	     type 2 shape 3 1 1
  45 settings made for shape
set	     group all quat/random 18238
  400 settings made for quat/random

compute	     rot all temp/asphere
group	     spheroid type 1
355 atoms in group spheroid
variable     dof equal count(spheroid)+2
compute_modify rot extra 357

velocity     all create 2.4 87287 loop geom

pair_style   resquared 4.0
pair_coeff   1 1 3.0 1 1 1 1 1 1 1 2.5
pair_coeff   1 2 3.0 1 1 1 1 0 0 0
pair_coeff   2 2 1.0 1 1 1 0.2 0 0 0

neighbor     0.8 bin

thermo_style custom step c_rot epair etotal press vol
thermo	     100

timestep     0.002

compute	     q all property/atom quatw quati quatj quatk

#dump	     1 all custom 100 dump.ellipse.resquared #	     id type x y z c_q[1] c_q[2] c_q[3] c_q[4]

#dump	     1 all image 100 image.*.jpg type type #	     zoom 1.6 center d 0.5 0.5 0.5
#dump_modify  1 pad 4 adiam 1 1.0 adiam 2 2.0

fix	     1 all npt/asphere temp 2.0 2.0 0.1 iso 0.0 1.0 1.0 	       mtk no pchain 0 tchain 1
fix	     2 all enforce2d

compute_modify 1_temp extra 357

# equilibrate to shrink box around dilute system

run	     2000
Step rot E_pair TotEng Press Volume
0    2.2718861            0        2.394      0.04788        20000
Averages over the last 11 of 21 rows, steps 1000 to 2000:
rot E_pair TotEng Press Volume
2.01088 0.106605 2.1097 0.791059 2438.58
Loop time of 1.41227 on 1 procs for 2000 steps with 400 atoms

Pair  time (%) = 1.19129 (84.3528)
Neigh time (%) = 0.011889 (0.841838)
Comm  time (%) = 0.00994301 (0.704047)
Outpt time (%) = 0.000351429 (0.0248841)
Other time (%) = 0.198796 (14.0764)

# run dynamics on dense system

unfix	     1
fix	     1 all nve/asphere

run	     2000
Step rot E_pair TotEng Press Volume
2000    1.9311181   0.17205165    2.1209583    1.3796723    1657.9242
Averages over the last 11 of 21 rows, steps 3000 to 4000:
rot E_pair TotEng Press Volume
1.93277 0.170483 2.11011 1.3057 1657.92
Loop time of 2.40524 on 1 procs for 2000 steps with 400 atoms

Pair  time (%) = 2.26117 (94.0102)
Neigh time (%) = 0.00471711 (0.196118)
Comm  time (%) = 0.0132644 (0.551481)
Outpt time (%) = 0.000371456 (0.0154436)
Other time (%) = 0.125716 (5.22677)
