LAMMPS (10 Sep 2013)
# Sample LAMMPS input script for thermal conductivity of Ar
# use Muller-Plathe method via fix heat

# settings

variable	x equal 10
variable	y equal 10
variable	z equal 20

variable	rho equal 0.6
variable        t equal 1.35
variable	rc equal 2.5

#variable	rho equal 0.85
#variable        t equal 0.7
#variable	rc equal 3.0

# setup problem

units		lj
atom_style	atomic

lattice		fcc 0.5999999999999999778
Lattice spacing in x,y,z = 1.88207 1.88207 1.88207
region		box block 0 $x 0 $y 0 $z
region		box block 0 10 0 $y 0 $z
region		box block 0 10 0 10 0 $z
region		box block 0 10 0 10 0 20
create_box	1 box
Created orthogonal box = (0 0 0) to (18.8207 18.8207 37.6414)
create_atoms	1 box
Created 8000 atoms
mass		1 1.0

velocity	all create $t 87287
velocity	all create 1.3500000000000000888 87287

pair_style	lj/cut 2.5
pair_coeff	1 1 1.0 1.0

neighbor	0.3 bin
neigh_modify	delay 0 every 1

# heat layers

region          hot block INF INF INF INF 0 1
region          cold block  INF INF INF INF 10 11
compute         Thot all temp/region hot
compute         Tcold all temp/region cold

# 1st equilibration run

fix             1 all nvt temp $t $t 0.5
fix             1 all nvt temp 1.3500000000000000888 $t 0.5
fix             1 all nvt temp 1.3500000000000000888 1.3500000000000000888 0.5
thermo	        100
run             1000
Step Temp E_pair E_mol TotEng Press
0         1.35   -4.1241917            0   -2.0994448   -3.1961612
Averages over the last 6 of 11 rows, steps 500 to 1000:
Temp E_pair E_mol TotEng Press
1.35275 -3.70205 0 -1.67318 0.863349
Loop time of 0.949627 on 8 procs for 1000 steps with 8000 atoms

Pair  time (%) = 0.541163 (56.9869)
Neigh time (%) = 0.235518 (24.8011)
Comm  time (%) = 0.116666 (12.2854)
Outpt time (%) = 0.000346035 (0.036439)
Other time (%) = 0.0559345 (5.89015)

velocity	all scale $t
velocity	all scale 1.3500000000000000888

unfix		1

# 2nd equilibration run

fix		1 all nve
fix             hot all heat 1 100.0 region hot
fix             cold all heat 1 -100.0 region cold

thermo_style    custom step temp c_Thot c_Tcold
thermo	        1000
run             10000
Step Temp Thot Tcold
1000         1.35    1.4312938    1.2955632
Averages over the last 6 of 11 rows, steps 6000 to 11000:
Temp Thot Tcold
1.36957 1.71844 1.09797
Loop time of 11.1763 on 8 procs for 10000 steps with 8000 atoms

Pair  time (%) = 5.4498 (48.7623)
Neigh time (%) = 2.4618 (22.027)
Comm  time (%) = 1.84575 (16.5149)
Outpt time (%) = 0.000465661 (0.00416652)
Other time (%) = 1.41845 (12.6917)

# thermal conductivity calculation

compute		ke all ke/atom
variable	temp atom c_ke/1.5

fix		2 all ave/spatial 10 100 1000 z lower 0.05 v_temp 		  file tmp.heat.profile units reduced

variable        tdiff equal f_2[11][3]-f_2[1][3]
fix             ave all ave/time 1 1 1000 v_tdiff ave running start 13000
thermo_style    custom step temp c_Thot c_Tcold v_tdiff f_ave

run             20000
Step Temp Thot Tcold tdiff ave
11000    1.3708468    1.7662195    1.1183408            0            0
Averages over the last 11 of 21 rows, steps 21000 to 31000:
Temp Thot Tcold tdiff ave
1.38454 1.88827 1.06793 -0.802704 -0.775883
Loop time of 24.0082 on 8 procs for 20000 steps with 8000 atoms

Pair  time (%) = 10.9795 (45.7322)
Neigh time (%) = 5.06218 (21.0852)
Comm  time (%) = 5.02267 (20.9207)
Outpt time (%) = 0.00179473 (0.00747548)
Other time (%) = 2.94205 (12.2544)
