LAMMPS (10 Sep 2013)
# Sample LAMMPS input script for thermal conductivity of Ar
# use thermostatting method via fix langevin

# settings

variable	x equal 10
variable	y equal 10
variable	z equal 20

variable	rho equal 0.6
variable        t equal 1.35
variable	rc equal 2.5
variable        tlo equal 1.0
variable        thi equal 1.70

#variable	rho equal 0.85
#variable        t equal 0.7
#variable	rc equal 3.0
#variable        tlo equal 0.3
#variable        thi equal 1.0

# setup problem

units		lj
atom_style	atomic

lattice		fcc 0.5999999999999999778
Lattice spacing in x,y,z = 1.88207 1.88207 1.88207
region		box block 0 $x 0 $y 0 $z
region		box block 0 10 0 $y 0 $z
region		box block 0 10 0 10 0 $z
region		box block 0 10 0 10 0 20
create_box	1 box
Created orthogonal box = (0 0 0) to (18.8207 18.8207 37.6414)
create_atoms	1 box
Created 8000 atoms
mass		1 1.0

velocity	all create $t 87287
velocity	all create 1.3500000000000000888 87287

pair_style	lj/cut 2.5
pair_coeff	1 1 1.0 1.0

neighbor	0.3 bin
neigh_modify	delay 0 every 1

# heat layers

region          hot block INF INF INF INF 0 1
region          cold block  INF INF INF INF 10 11
compute         Thot all temp/region hot
compute         Tcold all temp/region cold

# 1st equilibration run

fix             1 all nvt temp $t $t 0.5
fix             1 all nvt temp 1.3500000000000000888 $t 0.5
fix             1 all nvt temp 1.3500000000000000888 1.3500000000000000888 0.5
thermo	        100
run             1000
Step Temp E_pair E_mol TotEng Press
0         1.35   -4.1241917            0   -2.0994448   -3.1961612
Averages over the last 6 of 11 rows, steps 500 to 1000:
Temp E_pair E_mol TotEng Press
1.35275 -3.70205 0 -1.67318 0.863349
Loop time of 0.97534 on 8 procs for 1000 steps with 8000 atoms

Pair  time (%) = 0.546534 (56.0352)
Neigh time (%) = 0.238185 (24.4207)
Comm  time (%) = 0.131359 (13.468)
Outpt time (%) = 0.000289977 (0.0297308)
Other time (%) = 0.0589725 (6.04636)

velocity	all scale $t
velocity	all scale 1.3500000000000000888

unfix		1

# 2nd equilibration run

fix		1 all nve
fix             hot all langevin 1.6999999999999999556 1.6999999999999999556 1.0 59804 tally yes
fix             cold all langevin 1 1 1.0 287859 tally yes
fix_modify      hot temp Thot
fix_modify      cold temp Tcold

variable        tdiff equal c_Thot-c_Tcold
thermo_style    custom step temp c_Thot c_Tcold f_hot f_cold v_tdiff
thermo	        1000
run             10000
Step Temp Thot Tcold hot cold tdiff
1000         1.35    1.4312938    1.2955632           -0           -0   0.13573057
Averages over the last 6 of 11 rows, steps 6000 to 11000:
Temp Thot Tcold hot cold tdiff
1.3178 1.63052 1.07969 -0.501338 0.612407 0.550834
Loop time of 12.5268 on 8 procs for 10000 steps with 8000 atoms

Pair  time (%) = 5.45526 (43.5488)
Neigh time (%) = 2.46362 (19.6668)
Comm  time (%) = 2.16206 (17.2595)
Outpt time (%) = 0.000730932 (0.00583496)
Other time (%) = 2.4451 (19.519)

# thermal conductivity calculation
# rest langevin thermostats to zero energy accumulation

compute		ke all ke/atom
variable	temp atom c_ke/1.5

fix             hot all langevin 1.6999999999999999556 1.6999999999999999556 1.0 59804 tally yes
fix             cold all langevin 1 1 1.0 287859 tally yes
fix_modify      hot temp Thot
fix_modify      cold temp Tcold

fix             ave all ave/time 10 100 1000 v_tdiff ave running
thermo_style    custom step temp c_Thot c_Tcold f_hot f_cold v_tdiff f_ave

#fix		2 all ave/spatial 10 100 1000 z lower 0.05 v_temp #		  file tmp.langevin.profile units reduced

run             20000
Step Temp Thot Tcold hot cold tdiff ave
11000    1.3142376    1.5805779    1.0923244           -0           -0   0.48825352            0
Averages over the last 11 of 21 rows, steps 21000 to 31000:
Temp Thot Tcold hot cold tdiff ave
1.2931 1.64155 1.06786 -0.666526 0.717998 0.57369 0.577479
Loop time of 26.0148 on 8 procs for 20000 steps with 8000 atoms

Pair  time (%) = 10.9369 (42.0409)
Neigh time (%) = 4.91944 (18.9101)
Comm  time (%) = 5.07596 (19.5118)
Outpt time (%) = 0.00115007 (0.00442083)
Other time (%) = 5.08143 (19.5328)
