LAMMPS (9 Sep 2013)
# SRD viscosity demo - ellipsoids

units		lj
atom_style	ellipsoid
atom_modify	first big
dimension	2

# create big ellipsoidal particles

lattice		sq 0.14
Lattice spacing in x,y,z = 2.67261 2.67261 2.67261
region		box block 0 10 0 10 -0.5 0.5
create_box	2 box
Created orthogonal box = (0 0 -1.33631) to (26.7261 26.7261 1.33631)
create_atoms	1 region box
Created 100 atoms

set		type 1 mass 1.0
  100 settings made for mass
set		type 1 shape 3.0 1.0 1.0
  100 settings made for shape
group		big type 1
100 atoms in group big
set		group big quat/random 29898
  100 settings made for quat/random

velocity	big create 1.44 87287 loop geom

# equilibrate big particles

pair_style      gayberne 1.0 3.0 1.0 4.0
pair_coeff      1 1 1.0 1.0 1 1 1 1 1 1
pair_coeff      1 2 1.0 1.0 1 1 1 1 1 1 0.0
pair_coeff      2 2 1.0 1.0 1 1 1 1 1 1 0.0

neighbor	0.3 bin
neigh_modify	delay 0 every 1 check yes

fix		1 big nve/asphere
fix		2 all enforce2d

compute		rot big temp/asphere

#dump		1 all custom 10 dump.ellipsoid.equil id type x y z #		  quatw quati quatj quatk

thermo_style	custom step temp c_rot epair etotal press
thermo		100

run		1000
Step Temp rot E_pair TotEng Press
0         1.44   0.95677852    2.7038078    4.1294078    10.518912
Averages over the last 6 of 11 rows, steps 500 to 1000:
Temp rot E_pair TotEng Press
2.80907 2.87649 -0.476649 2.30433 0.864024
Loop time of 0.216003 on 8 procs for 1000 steps with 100 atoms

Pair  time (%) = 0.033883 (15.6863)
Neigh time (%) = 0.000561774 (0.260077)
Comm  time (%) = 0.110359 (51.0913)
Outpt time (%) = 0.00236297 (1.09395)
Other time (%) = 0.0688367 (31.8684)

#undump		1
unfix		1
unfix		2

# add small particles as hi density lattice

region		plane block INF INF INF INF -0.001 0.001 units box
lattice		sq 120.0
Lattice spacing in x,y,z = 0.0912871 0.0912871 0.0912871
create_atoms	2 region plane
Created 85849 atoms

set		type 2 mass 0.01
  85849 settings made for mass
group		small type 2
85849 atoms in group small
velocity	small create 1.0 593849 loop geom

# delete overlaps
# must set 1-2 cutoff to non-zero value

pair_style	lj/cut 2.5
pair_coeff	1 1 1.0 1.0
pair_coeff	2 2 0.0 1.0 0.0
pair_coeff	1 2 0.0 1.0 2.0

neigh_modify	one 10000

delete_atoms	overlap 1.6 small big
Deleted 71060 atoms, new total = 14889

# SRD run

reset_timestep	0

neighbor	0.3 bin
neigh_modify	delay 0 every 1 check yes

communicate	multi group big vel yes
neigh_modify	include big

# no pairwise interactions with small particles

pair_style      gayberne 1.0 3.0 1.0 4.0
pair_coeff      1 1 1.0 1.0 1 1 1 1 1 1
pair_coeff      1 2 1.0 1.0 1 1 1 1 1 1 0.0
pair_coeff      2 2 1.0 1.0 1 1 1 1 1 1 0.0

# use fix SRD to push small particles out from inside big ones
# if comment out, big particles won't see SRD particles

timestep	0.0005

fix		1 big nve/asphere
fix	        2 small srd 20 big 1.0 0.25 49894 shift yes 54979                   collision noslip search 0.2 inside ignore exact no bounce 50
fix		3 small viscosity 20 x y 50
fix		4 all enforce2d

# diagnostics

compute		tbig big temp/asphere
variable	pebig equal pe*atoms/count(big)
variable	ebig equal etotal*atoms/count(big)
thermo_style	custom step temp c_rot f_2[9] etotal v_pebig v_ebig press 		f_2[1] f_2[2] f_2[3] f_2[4] f_2[5] 		f_2[6] f_2[7] f_2[8] f_2[9] f_2[10] f_2[11] f_2[12]

thermo_modify	temp tbig
thermo		1000

#dump		1 all custom 500 dump.ellipsoid.mp id type x y z #                quatw quati quatj quatk

#dump		1 all image 500 image.*.jpg type type zoom 1.6
#dump_modify	1 pad 6 adiam 1 1 adiam 2 0.2

run		50000
SRD info:
  SRD/big particles = 14789 100
  big particle diameter max/min = 3 1
  SRD temperature & lamda = 1 0.1
  SRD max distance & max velocity = 0.4 40
  SRD grid counts: 107 107 1
  SRD grid size: request, actual (xyz) = 0.25, 0.249777 0.249777 2.67261
  SRD per actual grid cell = 1.92757
  SRD viscosity = 0.688101
  big/SRD mass density ratio = 1.37367
  # of rescaled SRD velocities = 0
  ave/max small velocity = 13.3093 24.3359
  ave/max big velocity = 2.08028 5.05672
Step Temp rot 2[9] TotEng pebig ebig Press 2[1] 2[2] 2[3] 2[4] 2[5] 2[6] 2[7] 2[8] 2[9] 2[10] 2[11] 2[12]
0    2.9005014    2.9005014            0  0.025582147  -0.51282121    3.8089259   0.89862319            0            0            0            0            0            0            0            0            0            0            0            0
Averages over the last 26 of 51 rows, steps 25000 to 50000:
Temp rot 2[9] TotEng pebig ebig Press 2[1] 2[2] 2[3] 2[4] 2[5] 2[6] 2[7] 2[8] 2[9] 2[10] 2[11] 2[12]
4.70017 4.70017 0.856265 0.0439073 -0.465904 6.53735 1.36781 19217.1 57.6538 334 0 1.24222e+07 98040 11449 6773.19 0.856265 68122.7 50 0
Loop time of 14.4429 on 8 procs for 50000 steps with 14889 atoms

Pair  time (%) = 1.82692 (12.6493)
Neigh time (%) = 0.991614 (6.86577)
Comm  time (%) = 1.32936 (9.20426)
Outpt time (%) = 0.0033724 (0.02335)
Other time (%) = 10.2916 (71.2574)

Please see the log.cite file for references relevant to this simulation
