LAMMPS (9 Sep 2013)
# SRD viscosity demo - dimer particles

units		lj
atom_style	sphere
atom_modify	map array first big
dimension	2

# read in clusters of rigid bodies

fix             molprop all property/atom mol
read_data	data.dimer fix molprop NULL Molecules
  orthogonal box = (-9.34165 -9.34165 -0.5) to (9.34165 9.34165 0.5)
  200 atoms

set		type 1 mass 1.0
  200 settings made for mass
group		big type 1
200 atoms in group big
velocity	big create 1.44 87287 loop geom

# equilibrate big particles

pair_style	soft 1.12
pair_coeff	1 1 0.0
pair_coeff	2 2 0.0 0.0
pair_coeff	1 2 0.0 0.0

variable        prefactor equal ramp(0,60)
fix             soft all adapt 1 pair soft a * * v_prefactor

fix		1 big rigid molecule
100 rigid bodies with 200 atoms
fix		2 all enforce2d

#dump		1 all atom 10 dump.dimer.equil

thermo		100
run		1000
Step Temp E_pair E_mol TotEng Press
0    3.4028231            0            0   0.83369167  -0.55065517
Averages over the last 6 of 11 rows, steps 500 to 1000:
Temp E_pair E_mol TotEng Press
16.8705 9.34626 0 13.4795 5.55199
Loop time of 0.0627978 on 8 procs for 1000 steps with 200 atoms

Pair  time (%) = 0.00222558 (3.54404)
Neigh time (%) = 0.000630498 (1.00401)
Comm  time (%) = 0.0138363 (22.0331)
Outpt time (%) = 0.000252694 (0.402393)
Other time (%) = 0.0458528 (73.0165)

#undump		1
unfix           soft
unfix		1
unfix		2

# add small particles as hi density lattice

region		plane block INF INF INF INF -0.001 0.001 units box
lattice		sq 85.0
Lattice spacing in x,y,z = 0.108465 0.108465 0.108465
create_atoms	2 region plane
Created 29929 atoms

set		type 2 mass 0.1
  29929 settings made for mass
group		small type 2
29929 atoms in group small
velocity	small create 1.0 593849 loop geom

# delete overlaps
# must set 1-2 cutoff to non-zero value

pair_style	lj/cut 2.5
pair_coeff	1 1 1.0 1.0
pair_coeff	2 2 0.0 1.0 0.0
pair_coeff	1 2 0.0 1.0 0.5

delete_atoms	overlap 0.5 small big
Deleted 12759 atoms, new total = 17370

# SRD run

reset_timestep	0

neighbor	0.3 bin
neigh_modify	delay 0 every 1 check yes

communicate	multi group big vel yes
neigh_modify	include big

# no pairwise interactions with small particles

pair_style	lj/cut 2.5
pair_coeff	1 1 1.0 1.0
pair_coeff	2 2 0.0 1.0 0.0
pair_coeff	1 2 0.0 1.0 0.0

# use fix SRD to push small particles out from inside big ones
# if comment out, big particles won't see SRD particles

timestep	0.001

fix		1 big rigid molecule
100 rigid bodies with 200 atoms
fix	        2 small srd 20 big 1.0 0.25 49894 shift yes 54979 		  search 0.2 collision slip inside ignore overlap yes
fix		3 small viscosity 10 x y 50
fix		4 all enforce2d

# diagnostics

compute		tbig big temp/sphere
variable	pebig equal pe*atoms/count(big)
variable	ebig equal etotal*atoms/count(big)
thermo_style	custom step temp f_2[8] etotal v_pebig v_ebig press 		f_2[1] f_2[2] f_2[3] f_2[4] f_2[5] 		f_2[6] f_2[7] f_2[8] f_2[9] f_2[10] f_2[11] f_2[12]

thermo_modify	temp tbig
thermo		1000

#dump		1 all atom 500 dump.dimer.mp

#dump		1 all image 500 image.*.jpg type type zoom 1.6
#dump_modify	1 pad 6 adiam 1 1 adiam 2 0.2

run		50000
SRD info:
  SRD/big particles = 17170 200
  big particle diameter max/min = 1 1
  SRD temperature & lamda = 1 0.0632456
  SRD max distance & max velocity = 0.252982 12.6491
  SRD grid counts: 75 75 1
  SRD grid size: request, actual (xyz) = 0.25, 0.249111 0.249111 1
  SRD per actual grid cell = 5.5499
  SRD viscosity = 0.235551
  big/SRD mass density ratio = 0.142367
  # of rescaled SRD velocities = 0
  ave/max small velocity = 4.20347 7.72323
  ave/max big velocity = 2.64047 6.60911
Step Temp 2[8] TotEng pebig ebig Press 2[1] 2[2] 2[3] 2[4] 2[5] 2[6] 2[7] 2[8] 2[9] 2[10] 2[11] 2[12]
0    6.9744766            0   0.30175295    21.011259    26.207244    2.7219332            0            0            0            0            0            0            0            0            0            0            0            0
Averages over the last 26 of 51 rows, steps 25000 to 50000:
Temp 2[8] TotEng pebig ebig Press 2[1] 2[2] 2[3] 2[4] 2[5] 2[6] 2[7] 2[8] 2[9] 2[10] 2[11] 2[12]
2.98732 3788.73 0.26154 20.4892 22.7148 8.034 12902.6 56.6538 56.6923 1.07692 59239.5 40320 5625 3788.73 1.01511 0 604 0
Loop time of 11.6101 on 8 procs for 50000 steps with 17370 atoms

Pair  time (%) = 0.175835 (1.5145)
Neigh time (%) = 0.643515 (5.54273)
Comm  time (%) = 0.862317 (7.42731)
Outpt time (%) = 0.00260469 (0.0224348)
Other time (%) = 9.92581 (85.493)

Please see the log.cite file for references relevant to this simulation
