LAMMPS (1 Feb 2014)
# 2d polygon nparticle bodies

units		lj
dimension       2
atom_style	body nparticle 2 6

read_data       data.body
  orthogonal box = (-15.5322 -15.5322 -0.5) to (15.5322 15.5322 0.5)
  reading atoms ...
  100 atoms
  100 bodies

velocity	all create 1.44 87287 loop geom

pair_style	body 5.0
pair_coeff	* * 1.0 1.0

neighbor	0.3 bin

fix		1 all nve/body
fix		2 all enforce2d

#compute         1 all body/local type 1 2 3
#dump            1 all local 100 dump.body index c_1[1] c_1[2] c_1[3] c_1[4]

thermo          500
run		10000
Step Temp E_pair E_mol TotEng Press
0         1.44  -0.63799525            0   0.78760475  -0.15028724
Averages over the last 11 of 21 rows, steps 5000 to 10000:
Temp E_pair E_mol TotEng Press
1.65873 -1.70143 0 -0.0592908 0.212718
Loop time of 2.02213 on 1 procs for 10000 steps with 100 atoms

Pair  time (%) = 1.79877 (88.9544)
Neigh time (%) = 0.0161726 (0.799784)
Comm  time (%) = 0.0302939 (1.49812)
Outpt time (%) = 0.000165939 (0.00820618)
Other time (%) = 0.176724 (8.7395)
