LAMMPS (9 Sep 2013)
# SRD diffusion demo - poydisperse spheres

units		lj
atom_style	sphere
atom_modify	first big
dimension	2

# create big particles with 3 different types and diameters

lattice		sq 0.3
Lattice spacing in x,y,z = 1.82574 1.82574 1.82574
region		box block 0 10 0 10 -0.5 0.5
create_box	4 box
Created orthogonal box = (0 0 -0.912871) to (18.2574 18.2574 0.912871)
create_atoms	1 region box
Created 100 atoms

group		big type 1
100 atoms in group big
set		group big type/fraction 2 0.33 394895
  35 settings made for type/fraction
set		group big type/fraction 3 0.5 989894
  57 settings made for type/fraction
group		big type 2 3
100 atoms in group big

set		type 1*3 mass 1.0
  100 settings made for mass
velocity	big create 1.44 87287 loop geom

# equilibrate big particles, repulsive only to prevent aggregation

pair_style	lj/cut 1.12
pair_coeff	1 1 1.0 1.0 1.12
pair_coeff	2 2 1.0 2.0 2.24
pair_coeff	3 3 1.0 1.5 1.68
pair_coeff	4 4 0.0 1.0 0.0

neighbor	0.3 bin
neigh_modify	delay 0 every 1 check yes

fix		1 big nve
fix		2 all enforce2d

#dump		1 all atom 10 dump.poly.equil

run		1000
Step Temp E_pair E_mol TotEng Press
0         1.44  -0.16013916            0    1.2654608    1.1298975
Loop time of 0.0263424 on 8 procs for 1000 steps with 100 atoms

Pair  time (%) = 0.000377953 (1.43477)
Neigh time (%) = 0.000303119 (1.15069)
Comm  time (%) = 0.0153534 (58.2839)
Outpt time (%) = 3.43621e-05 (0.130444)
Other time (%) = 0.0102736 (39.0002)

#undump		1
unfix		1
unfix		2

# add small particles as hi density lattice

region		plane block INF INF INF INF -0.001 0.001 units box
lattice		sq 250.0
Lattice spacing in x,y,z = 0.0632456 0.0632456 0.0632456
create_atoms	4 region plane
Created 83521 atoms

set		type 4 mass 0.1
  83521 settings made for mass
group		small type 4
83521 atoms in group small
velocity	small create 1.0 593849 loop geom

# delete overlaps
# must set *-4 cutoffs to non-zero values

pair_style	lj/cut 2.5
pair_coeff	1 1 1.0 1.0
pair_coeff	2 2 1.0 2.0
pair_coeff	3 3 1.0 1.5
pair_coeff	1 4 0.0 1.0 0.5
pair_coeff	2 4 0.0 1.0 1.0
pair_coeff	3 4 0.0 1.0 0.75

delete_atoms	overlap 1.0 small big
Deleted 63410 atoms, new total = 20211

# SRD run

reset_timestep	0

neighbor	0.3 bin
neigh_modify	delay 0 every 1 check yes

communicate	multi group big vel yes
neigh_modify	include big

# no pairwise interactions with small particles

pair_style	lj/cut 1.12
pair_coeff	1 1 1.0 1.0 1.12
pair_coeff	2 2 1.0 2.0 2.24
pair_coeff	3 3 1.0 1.5 1.68
pair_coeff	4 4 0.0 1.0 0.0

# use fix SRD to push small particles out from inside big ones
# if comment out, big particles won't see SRD particles

timestep	0.001

fix		1 big nve
fix	        2 small srd 20 big 1.0 0.25 49894 shift yes 54979                   search 0.2 inside ignore
fix		3 all enforce2d

# diagnostics

compute		tbig big temp/sphere
variable	pebig equal pe*atoms/count(big)
variable	ebig equal etotal*atoms/count(big)
thermo_style	custom step temp f_2[8] etotal v_pebig v_ebig press 		f_2[1] f_2[2] f_2[3] f_2[4] f_2[5] 		f_2[6] f_2[7] f_2[8] f_2[9] f_2[10] f_2[11]

thermo_modify	temp tbig
thermo		1000

#dump		1 all atom 1000 dump.poly

#dump		1 all image 1000 image.*.jpg type type zoom 1.6
#dump_modify	1 pad 6 adiam 1 1 adiam 2 2.0 adiam 3 1.5 adiam 4 0.1

run		100000
SRD info:
  SRD/big particles = 20111 100
  big particle diameter max/min = 1 1
  SRD temperature & lamda = 1 0.0632456
  SRD max distance & max velocity = 0.252982 12.6491
  SRD grid counts: 73 73 1
  SRD grid size: request, actual (xyz) = 0.25, 0.250102 0.250102 1.82574
  SRD per actual grid cell = 4.93717
  SRD viscosity = 0.23322
  big/SRD mass density ratio = 0.161311
  # of rescaled SRD velocities = 0
  ave/max small velocity = 4.19344 7.74495
  ave/max big velocity = 1.43991 3.5724
Step Temp 2[8] TotEng pebig ebig Press 2[1] 2[2] 2[3] 2[4] 2[5] 2[6] 2[7] 2[8] 2[9] 2[10] 2[11]
0   0.88820023            0 0.0050232797  -0.30816328    1.0152551    1.5440006            0            0            0            0            0            0            0            0            0            0            0
Averages over the last 51 of 101 rows, steps 50000 to 100000:
Temp 2[8] TotEng pebig ebig Press 2[1] 2[2] 2[3] 2[4] 2[5] 2[6] 2[7] 2[8] 2[9] 2[10] 2[11]
0.789572 4399.75 0.00428854 -0.309706 0.866756 1.44516 8588.65 34.8627 34.8627 0 75194.7 36480 5329 4399.75 1.09462 0 69.4706
Loop time of 15.4007 on 8 procs for 100000 steps with 20211 atoms

Pair  time (%) = 0.0612983 (0.398022)
Neigh time (%) = 0.858353 (5.57346)
Comm  time (%) = 1.11288 (7.22617)
Outpt time (%) = 0.00592667 (0.0384831)
Other time (%) = 13.3623 (86.7639)

Please see the log.cite file for references relevant to this simulation
