LAMMPS (18 Feb 2013)
# 3d Lennard-Jones melt

newton          off
package 	gpu force/neigh 0 1 1

variable	x index 2
variable	y index 2
variable	z index 2

variable	xx equal 20*$x
variable	xx equal 20*2
variable	yy equal 20*$y
variable	yy equal 20*2
variable	zz equal 20*$z
variable	zz equal 20*2

units		lj
atom_style	atomic

lattice		fcc 0.8442
Lattice spacing in x,y,z = 1.6796 1.6796 1.6796
region		box block 0 40 0 40 0 40
create_box	1 box
Created orthogonal box = (0 0 0) to (67.1838 67.1838 67.1838)
create_atoms	1 box
Created 256000 atoms
mass		1 1.0

velocity	all create 1.44 87287 loop geom

pair_style	lj/cut/gpu 2.5
pair_coeff	1 1 1.0 1.0 2.5

neighbor	0.3 bin
neigh_modify	delay 0 every 20 check no

fix		1 all nve

thermo 		100
run		1000
Step Temp E_pair E_mol TotEng Press
0         1.44   -6.7733685            0   -4.6133769   -5.0196738
Averages over the last 6 of 11 rows, steps 500 to 1000:
Temp E_pair E_mol TotEng Press
0.715199 -5.69394 0 -4.62115 0.604965
Loop time of 19.9863 on 1 procs for 1000 steps with 256000 atoms

Pair  time (%) = 12.3568 (61.8261)
Neigh time (%) = 7.41482e-05 (0.000370995)
Comm  time (%) = 1.09925 (5.50003)
Outpt time (%) = 0.0106428 (0.0532503)
Other time (%) = 6.51958 (32.6202)
