LAMMPS (30 Dec 2013)
# sample surface deposition script for molecules

units		lj
atom_style      bond
boundary        p p f

lattice		fcc 1.0
Lattice spacing in x,y,z = 1.5874 1.5874 1.5874
region          box block 0 5 0 5 0 10
create_box      3 box "bond types" 1 "extra bond per atom" 1
Created orthogonal box = (0 0 0) to (7.93701 7.93701 15.874)

region		substrate block INF INF INF INF INF 3
create_atoms	1 region substrate
Created 350 atoms

pair_style	lj/cut 2.5
pair_coeff	* * 1.0 1.0
pair_coeff	1 2 1.0 1.0 5.0
mass		* 1.0

bond_style	harmonic
bond_coeff      1 5.0 1.0

neigh_modify	delay 0

group		addatoms type 2
0 atoms in group addatoms
region          mobile block 0 5 0 5 2 INF
group		mobile region mobile
150 atoms in group mobile

compute		add addatoms temp
compute_modify	add dynamic yes extra 0

fix		1 addatoms nve
fix		2 mobile langevin 0.1 0.1 0.1 587283
fix		3 mobile nve

molecule        dimer molecule.dimer
region          slab block 0 5 0 5 8 9
fix		4 addatoms deposit 100 0 100 12345 region slab near 1.0                 mol dimer vz -1.0 -1.0
fix		5 addatoms wall/reflect zhi EDGE

thermo_style	custom step atoms temp epair etotal press
thermo          100
thermo_modify	temp add lost/bond ignore lost warn

#dump		1 all atom 50 dump.deposit.atom

#dump		1 all movie 50 image.*.jpg type type #		axes yes 0.8 0.02 view 80 -30
#dump_modify	1 pad 5

#dump		1 all movie 50 movie.mpg type type #		axes yes 0.8 0.02 view 80 -30
#dump_modify	1 pad 5

run             10000
Step Atoms Temp E_pair TotEng Press
0      350            0   -6.9215833   -6.9215833   -1.0052629
Averages over the last 51 of 101 rows, steps 5000 to 10000:
Atoms Temp E_pair TotEng Press
500 0.322391 -7.04085 -6.72265 -0.789748
Loop time of 6.55461 on 1 procs for 10000 steps with 550 atoms

Pair  time (%) = 4.01151 (61.2013)
Bond  time (%) = 0.0117879 (0.179841)
Neigh time (%) = 2.16259 (32.9935)
Comm  time (%) = 0.187663 (2.86307)
Outpt time (%) = 0.000994444 (0.0151717)
Other time (%) = 0.18006 (2.74707)
