LAMMPS (18 Feb 2013)
# 2d indenter simulation

dimension	2
boundary	p s p

atom_style	atomic
neighbor	0.3 bin
neigh_modify	delay 5

# create geometry

lattice		hex 0.9
Lattice spacing in x,y,z = 1.1327 1.96189 1.1327
region		box block 0 20 0 10 -0.25 0.25
create_box	2 box
Created orthogonal box = (0 0 -0.283174) to (22.6539 19.6189 0.283174)
create_atoms	1 box
Created 420 atoms

mass		1 1.0
mass		2 1.0

# LJ potentials

pair_style	lj/cut 2.5
pair_coeff	* * 1.0 1.0 2.5

# define groups

region	        1 block INF INF INF 1.25 INF INF
group		lower region 1
60 atoms in group lower
group		mobile subtract all lower
360 atoms in group mobile
set		group lower type 2
  60 settings made for type

# initial velocities

compute	  	new mobile temp
velocity	mobile create 0.2 482748 temp new
fix		1 all nve
fix		2 lower setforce 0.0 0.0 0.0
fix		3 all temp/rescale 100 0.1 0.1 0.01 1.0

# run with indenter

timestep	0.003
variable	k equal 1000.0/xlat
variable        y equal "13.0*ylat - step*dt*0.02*ylat"

fix		4 all indent $k sphere 10 v_y 0 5.0
fix		4 all indent 882.84928691481343321 sphere 10 v_y 0 5.0
fix		5 all enforce2d

thermo		1000
thermo_modify	temp new

#dump		1 all atom 250 dump.indent

#dump		1 all image 1000 image.*.jpg type type #		zoom 1.6 adiam 1.5
#dump_modify	1 pad 5

run		30000
Step Temp E_pair E_mol TotEng Press Volume
0          0.2   -3.1727576            0   -3.0018052    -1.436185    444.53333
Averages over the last 16 of 31 rows, steps 15000 to 30000:
Temp E_pair E_mol TotEng Press Volume
0.119275 -3.02643 0 -2.92447 0.999746 468.249
Loop time of 0.963257 on 4 procs for 30000 steps with 420 atoms

Pair  time (%) = 0.449727 (46.6882)
Neigh time (%) = 0.0182621 (1.89587)
Comm  time (%) = 0.241803 (25.1026)
Outpt time (%) = 0.000499487 (0.051854)
Other time (%) = 0.252965 (26.2614)

# run without indenter

unfix           4
run		30000
Step Temp E_pair E_mol TotEng Press Volume
30000    0.1220056   -3.0408195            0   -2.9365338   0.80726384    486.26601
Averages over the last 16 of 31 rows, steps 45000 to 60000:
Temp E_pair E_mol TotEng Press Volume
0.115928 -3.08013 0 -2.98104 -0.319354 465.364
Loop time of 0.850555 on 4 procs for 30000 steps with 420 atoms

Pair  time (%) = 0.43598 (51.2583)
Neigh time (%) = 0.0184039 (2.16375)
Comm  time (%) = 0.251242 (29.5386)
Outpt time (%) = 0.000487506 (0.0573163)
Other time (%) = 0.144442 (16.9821)
