LAMMPS (18 Feb 2013)
# 2d indenter simulation

dimension	2
boundary	p s p

atom_style	atomic
neighbor	0.3 bin
neigh_modify	delay 5

# create geometry

lattice		hex 0.9
Lattice spacing in x,y,z = 1.1327 1.96189 1.1327
region		box block 0 20 0 10 -0.25 0.25
create_box	2 box
Created orthogonal box = (0 0 -0.283174) to (22.6539 19.6189 0.283174)
create_atoms	1 box
Created 420 atoms

mass		1 1.0
mass		2 1.0

# LJ potentials

pair_style	lj/cut 2.5
pair_coeff	* * 1.0 1.0 2.5

# define groups

region	        1 block INF INF INF 1.25 INF INF
group		lower region 1
60 atoms in group lower
group		mobile subtract all lower
360 atoms in group mobile
set		group lower type 2
  60 settings made for type

# initial velocities

compute	  	new mobile temp
velocity	mobile create 0.2 482748 temp new
fix		1 all nve
fix		2 lower setforce 0.0 0.0 0.0
fix		3 all temp/rescale 100 0.1 0.1 0.01 1.0

# run with indenter

timestep	0.003
variable	k equal 1000.0/xlat
variable        y equal "13.0*ylat - step*dt*0.02*ylat"

fix		4 all indent $k sphere 10 v_y 0 5.0
fix		4 all indent 882.84928691481343321 sphere 10 v_y 0 5.0
fix		5 all enforce2d

thermo		1000
thermo_modify	temp new

#dump		1 all atom 250 dump.indent

#dump		1 all image 1000 image.*.jpg type type #		zoom 1.6 adiam 1.5
#dump_modify	1 pad 5

run		30000
Step Temp E_pair E_mol TotEng Press Volume
0          0.2   -3.1727576            0   -3.0018052    -1.436185    444.53333
Averages over the last 16 of 31 rows, steps 15000 to 30000:
Temp E_pair E_mol TotEng Press Volume
0.118396 -3.01561 0 -2.91441 1.12535 466.849
Loop time of 2.3314 on 1 procs for 30000 steps with 420 atoms

Pair  time (%) = 1.73976 (74.6228)
Neigh time (%) = 0.0687068 (2.94702)
Comm  time (%) = 0.0318851 (1.36764)
Outpt time (%) = 0.000296593 (0.0127217)
Other time (%) = 0.490756 (21.0498)

# run without indenter

unfix           4
run		30000
Step Temp E_pair E_mol TotEng Press Volume
30000   0.11564816   -2.9764576            0    -2.877606    1.7186102    475.04831
Averages over the last 16 of 31 rows, steps 45000 to 60000:
Temp E_pair E_mol TotEng Press Volume
0.117581 -3.07657 0 -2.97607 -0.34093 465.691
Loop time of 2.10947 on 1 procs for 30000 steps with 420 atoms

Pair  time (%) = 1.71534 (81.3161)
Neigh time (%) = 0.0708265 (3.35755)
Comm  time (%) = 0.0313859 (1.48786)
Outpt time (%) = 0.00027895 (0.0132237)
Other time (%) = 0.291641 (13.8253)
