LAMMPS (1 Feb 2014)
# 2d indenter simulation

dimension	2
boundary	p s p

atom_style	atomic
neighbor	0.3 bin
neigh_modify	delay 5

# create geometry

lattice		hex 0.9
Lattice spacing in x,y,z = 1.1327 1.96189 1.1327
region		box block 0 20 0 10 -0.25 0.25
create_box	2 box
Created orthogonal box = (0 0 -0.283174) to (22.6539 19.6189 0.283174)
create_atoms	1 box
Created 420 atoms

mass		1 1.0
mass		2 1.0

# LJ potentials

pair_style	lj/cut 2.5
pair_coeff	* * 1.0 1.0 2.5

# define groups

region	        1 block INF INF INF 1.25 INF INF
group		lower region 1
60 atoms in group lower
group		mobile subtract all lower
360 atoms in group mobile
set		group lower type 2
  60 settings made for type

# initial velocities

compute	  	new mobile temp
velocity	mobile create 0.2 482748 temp new
fix		1 all nve
fix		2 lower setforce 0.0 0.0 0.0
fix		3 all temp/rescale 100 0.1 0.1 0.01 1.0

# run with indenter

timestep	0.003
variable	k equal 1000.0/xlat
variable        y equal "13.0*ylat - step*dt*0.02*ylat"

fix		4 all indent $k sphere 10 v_y 0 5.0
fix		4 all indent 882.849286914813 sphere 10 v_y 0 5.0
fix		5 all enforce2d

thermo		1000
thermo_modify	temp new

#dump		1 all atom 250 dump.indent

#dump		2 all image 1000 image.*.jpg type type #		zoom 1.6 adiam 1.5
#dump_modify	2 pad 5

#dump		3 all movie 1000 movie.mpg type type #		zoom 1.6 adiam 1.5
#dump_modify	3 pad 5

run		30000
Step Temp E_pair E_mol TotEng Press Volume
0          0.2   -3.1727576            0   -3.0018052    -1.436185    444.53333
Averages over the last 16 of 31 rows, steps 15000 to 30000:
Temp E_pair E_mol TotEng Press Volume
0.118686 -3.02302 0 -2.92158 1.02247 468.303
Loop time of 1.04821 on 4 procs for 30000 steps with 420 atoms

Pair  time (%) = 0.450331 (42.9618)
Neigh time (%) = 0.01888 (1.80116)
Comm  time (%) = 0.314544 (30.0076)
Outpt time (%) = 0.000509083 (0.0485668)
Other time (%) = 0.263949 (25.1809)

# run without indenter

unfix           4
run		30000
Step Temp E_pair E_mol TotEng Press Volume
30000   0.11265389   -3.0300644            0   -2.9337722   0.97234223    485.80685
Averages over the last 16 of 31 rows, steps 45000 to 60000:
Temp E_pair E_mol TotEng Press Volume
0.114231 -3.04536 0 -2.94772 -0.190181 495.055
Loop time of 0.943008 on 4 procs for 30000 steps with 420 atoms

Pair  time (%) = 0.442427 (46.9166)
Neigh time (%) = 0.0189115 (2.00544)
Comm  time (%) = 0.326607 (34.6345)
Outpt time (%) = 0.000496209 (0.0526198)
Other time (%) = 0.154567 (16.3908)
