LAMMPS (18 Feb 2013)
Processor partition = 1
# temperature accelerated dynamics model for a single vacancy in bulk Si
# events occur when a neighboring atom diffuses to the vacant site
# run this on multiple partitions as
#   mpirun -np 3 lmp_g++ -partition 3x1 -in in.tad

units           metal

atom_style      atomic
atom_modify     map array
boundary        p p p
atom_modify	sort 0 0.0

# temperatures
variable tlo equal 1800.0
variable thi equal 2400.0

# coordination number cutoff

variable r equal 2.835

# minimization parameters

variable etol equal 1.0e-5
variable ftol equal 1.0e-5
variable maxiter equal 100
variable maxeval equal 100
variable dmax equal 1.0e-1

# diamond unit cell

variable a equal 5.431
lattice         custom $a                               a1 1.0 0.0 0.0                          a2 0.0 1.0 0.0                          a3 0.0 0.0 1.0                          basis 0.0 0.0 0.0                       basis 0.0 0.5 0.5                       basis 0.5 0.0 0.5                       basis 0.5 0.5 0.0                       basis 0.25 0.25 0.25                    basis 0.25 0.75 0.75                    basis 0.75 0.25 0.75                    basis 0.75 0.75 0.25
lattice         custom 5.4310000000000000497                               a1 1.0 0.0 0.0                          a2 0.0 1.0 0.0                          a3 0.0 0.0 1.0                          basis 0.0 0.0 0.0                       basis 0.0 0.5 0.5                       basis 0.5 0.0 0.5                       basis 0.5 0.5 0.0                       basis 0.25 0.25 0.25                    basis 0.25 0.75 0.75                    basis 0.75 0.25 0.75                    basis 0.75 0.75 0.25
Lattice spacing in x,y,z = 5.431 5.431 5.431

region          myreg block     0 4                                 0 4                                 0 4
create_box      1 myreg
Created orthogonal box = (0 0 0) to (21.724 21.724 21.724)
create_atoms    1 region myreg
Created 512 atoms

mass            1       28.06

group Si type 1
512 atoms in group Si

velocity all create 2400 5287286 mom yes rot yes dist gaussian

# make a vacancy

group del id 300
1 atoms in group del
delete_atoms group del
Deleted 1 atoms, new total = 511

pair_style      sw
pair_coeff * * Si.sw Si

thermo          10

fix             1 all nve
fix 		2 all langevin 2400 2400 0.1 48278

timestep        1.0e-3
neighbor        1.0 bin
neigh_modify    every 1 delay 10 check yes

# equilibrate

run             1000
Step Temp E_pair E_mol TotEng Press
0    2397.3877    -2211.666            0   -2053.6238    16437.395
Averages over the last 51 of 101 rows, steps 500 to 1000:
Temp E_pair E_mol TotEng Press
2382.57 -2031.49 0 -1874.42 15998.4
Loop time of 2.32045 on 1 procs for 1000 steps with 511 atoms

Pair  time (%) = 2.23561 (96.3438)
Neigh time (%) = 0.0379391 (1.63499)
Comm  time (%) = 0.00937676 (0.404093)
Outpt time (%) = 0.00080061 (0.0345024)
Other time (%) = 0.0367236 (1.58261)

# Eliminate COM motion
velocity all zero linear

# only output atoms near vacancy

compute coord all coord/atom $r
compute coord all coord/atom 2.8349999999999999645

#dump events all custom 1 dump.prd id type x y z
#dump_modify events thresh c_coord != 4

compute  patom all pe/atom
compute  pe all reduce sum c_patom
compute  satom all stress/atom
compute  str all reduce sum c_satom[1] c_satom[2] c_satom[3]
variable press equal (c_str[1]+c_str[2]+c_str[3])/(3*vol)

thermo_style custom step temp pe c_pe press v_press

compute         event all event/displace 1.0

unfix 1
unfix 2
fix 		1 all nvt temp 2400 2400 0.1

# tad nsteps nevent tlo thi delta_conf tmax compute
#     [min etol ftol niter neval]
#     [neb etol_neb ftol_neb n1steps n2steps nevery]
#     [min_style min_style]
#     [neb_style min_style]
#     [neb_log logfile]

tad 2000 50 1800 2400 0.05 1.0 event     min 1.0000000000000000818e-05 1.0000000000000000818e-05 100 100     neb 0.0 0.01 200 200 20     min_style cg     neb_style fire     neb_log log.neb
Step Temp PotEng pe Press press
1000     2402.628   -2022.9475   -2022.9475     15461.21    -15461.21
Loop time of 0.05654 on 1 procs for 22 steps with 511 atoms

Minimization stats:
  Stopping criterion = energy tolerance
  Energy initial, next-to-last, final =
  Force two-norm initial, final = 70.3784 0.377272
  Force max component initial, final = 5.75308 0.037084
  Final line search alpha, max atom move = 0.0625 0.00231775
  Iterations, force evaluations = 22 50

Pair  time (%) = 2.28957 (4049.46)
Neigh time (%) = 0.0392489 (69.418)
Comm  time (%) = 0.00982738 (17.3813)
Outpt time (%) = 0.000933647 (1.6513)
Other time (%) = -2.28304 (-4037.91)

Step Temp PotEng pe Press press
1000     2402.628   -2022.9475   -2022.9475     15461.21    -15461.21
Step Temp PotEng pe Press press
1150            0   -2208.1718   -2208.1718   -3227.0211    3227.0211
Loop time of 0.203291 on 1 procs for 200 steps with 511 atoms

Minimization stats:
  Stopping criterion = max iterations
  Energy initial, next-to-last, final =
  Force two-norm initial, final = 11.6554 0.335826
  Force max component initial, final = 6.62337 0.0362959
  Final line search alpha, max atom move = 0 0
  Iterations, force evaluations = 200 200

Pair  time (%) = 0.182448 (89.7474)
Neigh time (%) = 0.00127506 (0.627211)
Comm  time (%) = 0.00163937 (0.806414)
Outpt time (%) = 0.00131607 (0.647383)
Other time (%) = 0.0166121 (8.17157)

Step Temp PotEng pe Press press
1350            0   -2213.2909   -2213.2909   -3384.8586    3384.8586
Loop time of 0.160341 on 1 procs for 160 steps with 511 atoms

Minimization stats:
  Stopping criterion = force tolerance
  Energy initial, next-to-last, final =
  Force two-norm initial, final = 0.335826 0.00809973
  Force max component initial, final = 0.0362959 0.000736646
  Final line search alpha, max atom move = 0 0
  Iterations, force evaluations = 160 160

Pair  time (%) = 0.140505 (87.6286)
Neigh time (%) = 0 (0)
Comm  time (%) = 0.00129938 (0.810386)
Outpt time (%) = 0.000983715 (0.613514)
Other time (%) = 0.0175533 (10.9475)

Step Temp PotEng pe Press press
1550            0   -2212.7878   -2212.7878   -3603.9978    3603.9978
Loop time of 0.166743 on 1 procs for 166 steps with 511 atoms

Minimization stats:
  Stopping criterion = force tolerance
  Energy initial, next-to-last, final =
  Force two-norm initial, final = 0.997487 0.00937149
  Force max component initial, final = 0.231841 0.00102351
  Final line search alpha, max atom move = 0 0
  Iterations, force evaluations = 166 166

Pair  time (%) = 0.152166 (91.2576)
Neigh time (%) = 0 (0)
Comm  time (%) = 0.0013783 (0.8266)
Outpt time (%) = 0.00105739 (0.634141)
Other time (%) = 0.0121417 (7.28169)

Step Temp PotEng pe Press press
1716            0   -2212.8273   -2212.8273   -3538.6767    3538.6767
Loop time of 0.00216007 on 1 procs for 1 steps with 511 atoms

Minimization stats:
  Stopping criterion = force tolerance
  Energy initial, next-to-last, final =
  Force two-norm initial, final = 0.00937371 0.00937371
  Force max component initial, final = 0.00102355 0.00102355
  Final line search alpha, max atom move = 0 0
  Iterations, force evaluations = 1 1

Pair  time (%) = 0.00194597 (90.0883)
Neigh time (%) = 0 (0)
Comm  time (%) = 1.5974e-05 (0.739514)
Outpt time (%) = 0 (0)
Other time (%) = 0.000198126 (9.17219)

Step Temp PotEng pe Press press
1950            0   -2209.3761   -2209.3761   -3142.2135    3142.2135
Loop time of 0.203043 on 1 procs for 200 steps with 511 atoms

Minimization stats:
  Stopping criterion = max iterations
  Energy initial, next-to-last, final =
  Force two-norm initial, final = 9.66579 0.127962
  Force max component initial, final = 5.33469 0.0713942
  Final line search alpha, max atom move = 0 0
  Iterations, force evaluations = 200 200

Pair  time (%) = 0.183336 (90.2941)
Neigh time (%) = 0 (0)
Comm  time (%) = 0.00160146 (0.788728)
Outpt time (%) = 0.00134349 (0.661677)
Other time (%) = 0.0167623 (8.25552)

Step Temp PotEng pe Press press
2150            0   -2211.3398   -2211.3398   -3473.3638    3473.3638
Loop time of 0.116555 on 1 procs for 113 steps with 511 atoms

Minimization stats:
  Stopping criterion = force tolerance
  Energy initial, next-to-last, final =
  Force two-norm initial, final = 0.127962 0.00946178
  Force max component initial, final = 0.0713942 0.00261171
  Final line search alpha, max atom move = 0 0
  Iterations, force evaluations = 113 113

Pair  time (%) = 0.105618 (90.6167)
Neigh time (%) = 0 (0)
Comm  time (%) = 0.000988245 (0.847879)
Outpt time (%) = 0.000732183 (0.628187)
Other time (%) = 0.00921631 (7.90726)

Step Temp PotEng pe Press press
2350            0   -2212.7804   -2212.7804   -3607.4239    3607.4239
Loop time of 0.178356 on 1 procs for 177 steps with 511 atoms

Minimization stats:
  Stopping criterion = force tolerance
  Energy initial, next-to-last, final =
  Force two-norm initial, final = 1.04323 0.00967124
  Force max component initial, final = 0.23682 0.00197849
  Final line search alpha, max atom move = 0 0
  Iterations, force evaluations = 177 177

Pair  time (%) = 0.163089 (91.4403)
Neigh time (%) = 0 (0)
Comm  time (%) = 0.00141358 (0.792563)
Outpt time (%) = 0.00113106 (0.634158)
Other time (%) = 0.012722 (7.13294)

Step Temp PotEng pe Press press
2527            0   -2212.8273   -2212.8273   -3540.3483    3540.3483
Loop time of 0.0581429 on 1 procs for 57 steps with 511 atoms

Minimization stats:
  Stopping criterion = force tolerance
  Energy initial, next-to-last, final =
  Force two-norm initial, final = 0.010164 0.00999439
  Force max component initial, final = 0.00221896 0.00221473
  Final line search alpha, max atom move = 0 0
  Iterations, force evaluations = 57 57

Pair  time (%) = 0.0530813 (91.2945)
Neigh time (%) = 0 (0)
Comm  time (%) = 0.000464678 (0.7992)
Outpt time (%) = 0.000439882 (0.756554)
Other time (%) = 0.00415707 (7.14974)

Step Temp PotEng pe Press press
2800            0   -2208.8483   -2208.8483   -3052.5382    3052.5382
Loop time of 0.201283 on 1 procs for 200 steps with 511 atoms

Minimization stats:
  Stopping criterion = max iterations
  Energy initial, next-to-last, final =
  Force two-norm initial, final = 11.0399 0.0851206
  Force max component initial, final = 6.46908 0.0426169
  Final line search alpha, max atom move = 0 0
  Iterations, force evaluations = 200 200

Pair  time (%) = 0.179863 (89.3585)
Neigh time (%) = 0 (0)
Comm  time (%) = 0.00162697 (0.808299)
Outpt time (%) = 0.00133133 (0.661422)
Other time (%) = 0.0184612 (9.17178)

Step Temp PotEng pe Press press
3000            0   -2211.2972   -2211.2972   -3477.6674    3477.6674
Loop time of 0.106131 on 1 procs for 105 steps with 511 atoms

Minimization stats:
  Stopping criterion = force tolerance
  Energy initial, next-to-last, final =
  Force two-norm initial, final = 0.0851206 0.00924307
  Force max component initial, final = 0.0426169 0.00347619
  Final line search alpha, max atom move = 0 0
  Iterations, force evaluations = 105 105

Pair  time (%) = 0.0956087 (90.0855)
Neigh time (%) = 0 (0)
Comm  time (%) = 0.000867367 (0.81726)
Outpt time (%) = 0.000653505 (0.615753)
Other time (%) = 0.00900149 (8.48149)

Step Temp PotEng pe Press press
1600            0   -2213.2863   -2213.2863   -3390.9484    3390.9484
Loop time of 0.169733 on 1 procs for 172 steps with 511 atoms

Minimization stats:
  Stopping criterion = force tolerance
  Energy initial, next-to-last, final =
  Force two-norm initial, final = 0.353657 0.00966774
  Force max component initial, final = 0.0444147 0.000878499
  Final line search alpha, max atom move = 0 0
  Iterations, force evaluations = 172 172

Pair  time (%) = 0.154494 (91.0218)
Neigh time (%) = 0 (0)
Comm  time (%) = 0.00152445 (0.898145)
Outpt time (%) = 0.00113177 (0.666796)
Other time (%) = 0.0125828 (7.41328)

Step Temp PotEng pe Press press
1772            0   -2213.3373   -2213.3373   -3383.3726    3383.3726
Loop time of 0.196566 on 1 procs for 200 steps with 511 atoms

Minimization stats:
  Stopping criterion = max iterations
  Energy initial, next-to-last, final =
  Force two-norm initial, final = 0.013397 0.0794832
  Force max component initial, final = 0.00108968 0.0061053
  Final line search alpha, max atom move = 0 0
  Iterations, force evaluations = 200 200

Pair  time (%) = 0.177464 (90.2819)
Neigh time (%) = 0 (0)
Comm  time (%) = 0.00160575 (0.8169)
Outpt time (%) = 0.00138855 (0.706403)
Other time (%) = 0.0161083 (8.19484)

Step Temp PotEng pe Press press
1650            0   -2212.7686   -2212.7686   -3602.6038    3602.6038
Loop time of 0.169756 on 1 procs for 171 steps with 511 atoms

Minimization stats:
  Stopping criterion = force tolerance
  Energy initial, next-to-last, final =
  Force two-norm initial, final = 1.00877 0.00819935
  Force max component initial, final = 0.258592 0.000878457
  Final line search alpha, max atom move = 0 0
  Iterations, force evaluations = 171 171

Pair  time (%) = 0.155079 (91.3542)
Neigh time (%) = 0 (0)
Comm  time (%) = 0.00137353 (0.80912)
Outpt time (%) = 0.00111413 (0.656313)
Other time (%) = 0.0121891 (7.1804)

Step Temp PotEng pe Press press
1821            0   -2212.8273   -2212.8273    -3538.376     3538.376
Loop time of 0.00215316 on 1 procs for 1 steps with 511 atoms

Minimization stats:
  Stopping criterion = force tolerance
  Energy initial, next-to-last, final =
  Force two-norm initial, final = 0.00817676 0.00817676
  Force max component initial, final = 0.000881382 0.000881382
  Final line search alpha, max atom move = 0 0
  Iterations, force evaluations = 1 1

Pair  time (%) = 0.00192213 (89.2703)
Neigh time (%) = 0 (0)
Comm  time (%) = 1.69277e-05 (0.786181)
Outpt time (%) = 0 (0)
Other time (%) = 0.0002141 (9.94353)

Step Temp PotEng pe Press press
1700            0   -2212.7595   -2212.7595   -3600.4028    3600.4028
Loop time of 0.173377 on 1 procs for 174 steps with 511 atoms

Minimization stats:
  Stopping criterion = force tolerance
  Energy initial, next-to-last, final =
  Force two-norm initial, final = 1.00372 0.00636652
  Force max component initial, final = 0.243856 0.000631606
  Final line search alpha, max atom move = 0 0
  Iterations, force evaluations = 174 174

Pair  time (%) = 0.158558 (91.4526)
Neigh time (%) = 0 (0)
Comm  time (%) = 0.0013845 (0.798547)
Outpt time (%) = 0.00111461 (0.64288)
Other time (%) = 0.01232 (7.10592)

Step Temp PotEng pe Press press
1874            0   -2212.8273   -2212.8273   -3538.3821    3538.3821
Loop time of 0.00213885 on 1 procs for 1 steps with 511 atoms

Minimization stats:
  Stopping criterion = force tolerance
  Energy initial, next-to-last, final =
  Force two-norm initial, final = 0.0063558 0.0063558
  Force max component initial, final = 0.000631226 0.000631226
  Final line search alpha, max atom move = 0 0
  Iterations, force evaluations = 1 1

Pair  time (%) = 0.00192404 (89.9565)
Neigh time (%) = 0 (0)
Comm  time (%) = 1.5974e-05 (0.746851)
Outpt time (%) = 0 (0)
Other time (%) = 0.000198841 (9.29662)

Step Temp PotEng pe Press press
1650            0   -2212.7682   -2212.7682   -3599.2807    3599.2807
Loop time of 0.180799 on 1 procs for 182 steps with 511 atoms

Minimization stats:
  Stopping criterion = force tolerance
  Energy initial, next-to-last, final =
  Force two-norm initial, final = 1.0359 0.00869468
  Force max component initial, final = 0.212886 0.000758994
  Final line search alpha, max atom move = 0 0
  Iterations, force evaluations = 182 182

Pair  time (%) = 0.165241 (91.3949)
Neigh time (%) = 0 (0)
Comm  time (%) = 0.00146151 (0.808359)
Outpt time (%) = 0.00118852 (0.657369)
Other time (%) = 0.012908 (7.13941)

Step Temp PotEng pe Press press
1832            0   -2212.8273   -2212.8273   -3538.7293    3538.7293
Loop time of 0.002141 on 1 procs for 1 steps with 511 atoms

Minimization stats:
  Stopping criterion = force tolerance
  Energy initial, next-to-last, final =
  Force two-norm initial, final = 0.00876782 0.00876782
  Force max component initial, final = 0.000851202 0.000851202
  Final line search alpha, max atom move = 0 0
  Iterations, force evaluations = 1 1

Pair  time (%) = 0.00191808 (89.588)
Neigh time (%) = 0 (0)
Comm  time (%) = 1.81198e-05 (0.846325)
Outpt time (%) = 0 (0)
Other time (%) = 0.000204802 (9.5657)

Step Temp PotEng pe Press press
1700            0   -2212.7706   -2212.7706    -3600.945     3600.945
Loop time of 0.179999 on 1 procs for 181 steps with 511 atoms

Minimization stats:
  Stopping criterion = force tolerance
  Energy initial, next-to-last, final =
  Force two-norm initial, final = 1.05549 0.00576726
  Force max component initial, final = 0.270855 0.000718279
  Final line search alpha, max atom move = 0 0
  Iterations, force evaluations = 181 181

Pair  time (%) = 0.164816 (91.5652)
Neigh time (%) = 0 (0)
Comm  time (%) = 0.00146151 (0.811953)
Outpt time (%) = 0.00119638 (0.664662)
Other time (%) = 0.0125246 (6.95816)

Step Temp PotEng pe Press press
1881            0   -2212.8273   -2212.8273   -3538.4474    3538.4474
Loop time of 0.00213408 on 1 procs for 1 steps with 511 atoms

Minimization stats:
  Stopping criterion = force tolerance
  Energy initial, next-to-last, final =
  Force two-norm initial, final = 0.00580511 0.00580511
  Force max component initial, final = 0.000718187 0.000718187
  Final line search alpha, max atom move = 0 0
  Iterations, force evaluations = 1 1

Pair  time (%) = 0.00192213 (90.0681)
Neigh time (%) = 0 (0)
Comm  time (%) = 1.62125e-05 (0.759692)
Outpt time (%) = 0 (0)
Other time (%) = 0.000195742 (9.17216)

Step Temp PotEng pe Press press
1750            0   -2212.7706   -2212.7706   -3600.9604    3600.9604
Loop time of 0.176228 on 1 procs for 172 steps with 511 atoms

Minimization stats:
  Stopping criterion = force tolerance
  Energy initial, next-to-last, final =
  Force two-norm initial, final = 1.05325 0.00808727
  Force max component initial, final = 0.270605 0.000828594
  Final line search alpha, max atom move = 0 0
  Iterations, force evaluations = 172 172

Pair  time (%) = 0.160968 (91.3409)
Neigh time (%) = 0 (0)
Comm  time (%) = 0.00140142 (0.795233)
Outpt time (%) = 0.00120258 (0.682402)
Other time (%) = 0.0126557 (7.18145)

Step Temp PotEng pe Press press
1922            0   -2212.8273   -2212.8273   -3538.6747    3538.6747
Loop time of 0.00220394 on 1 procs for 1 steps with 511 atoms

Minimization stats:
  Stopping criterion = force tolerance
  Energy initial, next-to-last, final =
  Force two-norm initial, final = 0.0083514 0.0083514
  Force max component initial, final = 0.00132471 0.00132471
  Final line search alpha, max atom move = 0 0
  Iterations, force evaluations = 1 1

Pair  time (%) = 0.00198698 (90.1558)
Neigh time (%) = 0 (0)
Comm  time (%) = 1.38283e-05 (0.627434)
Outpt time (%) = 0 (0)
Other time (%) = 0.000203133 (9.21679)

Step Temp PotEng pe Press press
1800            0   -2212.7707   -2212.7707   -3600.9416    3600.9416
Loop time of 0.186222 on 1 procs for 181 steps with 511 atoms

Minimization stats:
  Stopping criterion = force tolerance
  Energy initial, next-to-last, final =
  Force two-norm initial, final = 1.05191 0.00572582
  Force max component initial, final = 0.270509 0.000710928
  Final line search alpha, max atom move = 0 0
  Iterations, force evaluations = 181 181

Pair  time (%) = 0.170076 (91.3299)
Neigh time (%) = 0 (0)
Comm  time (%) = 0.00153089 (0.822075)
Outpt time (%) = 0.00118828 (0.638097)
Other time (%) = 0.0134265 (7.20996)

Step Temp PotEng pe Press press
1981            0   -2212.8273   -2212.8273   -3538.4559    3538.4559
Loop time of 0.00213885 on 1 procs for 1 steps with 511 atoms

Minimization stats:
  Stopping criterion = force tolerance
  Energy initial, next-to-last, final =
  Force two-norm initial, final = 0.00576992 0.00576992
  Force max component initial, final = 0.000710828 0.000710828
  Final line search alpha, max atom move = 0 0
  Iterations, force evaluations = 1 1

Pair  time (%) = 0.00192308 (89.9119)
Neigh time (%) = 0 (0)
Comm  time (%) = 1.5974e-05 (0.746851)
Outpt time (%) = 0 (0)
Other time (%) = 0.000199795 (9.34121)

Step Temp PotEng pe Press press
1850            0   -2212.7712   -2212.7712   -3600.7788    3600.7788
Loop time of 0.180184 on 1 procs for 181 steps with 511 atoms

Minimization stats:
  Stopping criterion = force tolerance
  Energy initial, next-to-last, final =
  Force two-norm initial, final = 1.05429 0.00563712
  Force max component initial, final = 0.271423 0.000667941
  Final line search alpha, max atom move = 0 0
  Iterations, force evaluations = 181 181

Pair  time (%) = 0.164623 (91.364)
Neigh time (%) = 0 (0)
Comm  time (%) = 0.00144482 (0.801856)
Outpt time (%) = 0.00119781 (0.664773)
Other time (%) = 0.012918 (7.16933)

Step Temp PotEng pe Press press
2031            0   -2212.8273   -2212.8273   -3538.4762    3538.4762
Loop time of 0.0021379 on 1 procs for 1 steps with 511 atoms

Minimization stats:
  Stopping criterion = force tolerance
  Energy initial, next-to-last, final =
  Force two-norm initial, final = 0.00569129 0.00569129
  Force max component initial, final = 0.000667831 0.000667831
  Final line search alpha, max atom move = 0 0
  Iterations, force evaluations = 1 1

Pair  time (%) = 0.00191998 (89.8071)
Neigh time (%) = 0 (0)
Comm  time (%) = 1.5974e-05 (0.747184)
Outpt time (%) = 0 (0)
Other time (%) = 0.000201941 (9.44575)

Step Temp PotEng pe Press press
1900            0   -2212.7717   -2212.7717   -3600.5952    3600.5952
Loop time of 0.185696 on 1 procs for 187 steps with 511 atoms

Minimization stats:
  Stopping criterion = force tolerance
  Energy initial, next-to-last, final =
  Force two-norm initial, final = 1.04757 0.00710606
  Force max component initial, final = 0.271511 0.000585812
  Final line search alpha, max atom move = 0 0
  Iterations, force evaluations = 187 187

Pair  time (%) = 0.16998 (91.5367)
Neigh time (%) = 0 (0)
Comm  time (%) = 0.00150466 (0.810282)
Outpt time (%) = 0.00119543 (0.643757)
Other time (%) = 0.013016 (7.0093)

Step Temp PotEng pe Press press
2087            0   -2212.8273   -2212.8273   -3539.3305    3539.3305
Loop time of 0.00214219 on 1 procs for 1 steps with 511 atoms

Minimization stats:
  Stopping criterion = force tolerance
  Energy initial, next-to-last, final =
  Force two-norm initial, final = 0.00728078 0.00728078
  Force max component initial, final = 0.000741364 0.000741364
  Final line search alpha, max atom move = 0 0
  Iterations, force evaluations = 1 1

Pair  time (%) = 0.00192499 (89.8609)
Neigh time (%) = 0 (0)
Comm  time (%) = 1.40667e-05 (0.65665)
Outpt time (%) = 0 (0)
Other time (%) = 0.000203133 (9.48247)

Step Temp PotEng pe Press press
1700            0   -2213.3089   -2213.3089   -3383.7152    3383.7152
Loop time of 0.178704 on 1 procs for 182 steps with 511 atoms

Minimization stats:
  Stopping criterion = force tolerance
  Energy initial, next-to-last, final =
  Force two-norm initial, final = 0.38355 0.00653489
  Force max component initial, final = 0.0324658 0.000508704
  Final line search alpha, max atom move = 0 0
  Iterations, force evaluations = 182 182

Pair  time (%) = 0.161676 (90.4712)
Neigh time (%) = 0 (0)
Comm  time (%) = 0.00151253 (0.846387)
Outpt time (%) = 0.00117302 (0.656403)
Other time (%) = 0.0143428 (8.026)

Step Temp PotEng pe Press press
1882            0   -2213.3374   -2213.3374   -3383.4038    3383.4038
Loop time of 0.00212884 on 1 procs for 1 steps with 511 atoms

Minimization stats:
  Stopping criterion = force tolerance
  Energy initial, next-to-last, final =
  Force two-norm initial, final = 0.00653489 0.00653489
  Force max component initial, final = 0.000508704 0.000508704
  Final line search alpha, max atom move = 0 0
  Iterations, force evaluations = 1 1

Pair  time (%) = 0.00190401 (89.4389)
Neigh time (%) = 0 (0)
Comm  time (%) = 1.40667e-05 (0.660768)
Outpt time (%) = 0 (0)
Other time (%) = 0.000210762 (9.90032)

Step Temp PotEng pe Press press
1750            0   -2211.2102   -2211.2102   -3399.6586    3399.6586
Loop time of 0.199142 on 1 procs for 200 steps with 511 atoms

Minimization stats:
  Stopping criterion = max iterations
  Energy initial, next-to-last, final =
  Force two-norm initial, final = 6.03639 0.061773
  Force max component initial, final = 2.67231 0.00944236
  Final line search alpha, max atom move = 0 0
  Iterations, force evaluations = 200 200

Pair  time (%) = 0.180944 (90.862)
Neigh time (%) = 0 (0)
Comm  time (%) = 0.00161529 (0.811123)
Outpt time (%) = 0.00132561 (0.665659)
Other time (%) = 0.0152566 (7.66119)

Step Temp PotEng pe Press press
1950            0   -2213.3372   -2213.3372   -3384.6403    3384.6403
Loop time of 0.200034 on 1 procs for 200 steps with 511 atoms

Minimization stats:
  Stopping criterion = max iterations
  Energy initial, next-to-last, final =
  Force two-norm initial, final = 0.0617862 4.7723
  Force max component initial, final = 0.00937869 1.73912
  Final line search alpha, max atom move = 0 0
  Iterations, force evaluations = 200 200

Pair  time (%) = 0.179081 (89.5254)
Neigh time (%) = 0.00328374 (1.64159)
Comm  time (%) = 0.0017395 (0.869604)
Outpt time (%) = 0.00131607 (0.657924)
Other time (%) = 0.0146134 (7.30546)

Step Temp PotEng pe Press press
1800            0   -2211.1749   -2211.1749   -3411.4517    3411.4517
Loop time of 0.200839 on 1 procs for 200 steps with 511 atoms

Minimization stats:
  Stopping criterion = max iterations
  Energy initial, next-to-last, final =
  Force two-norm initial, final = 6.0064 0.0271014
  Force max component initial, final = 2.6823 0.0028849
  Final line search alpha, max atom move = 0 0
  Iterations, force evaluations = 200 200

Pair  time (%) = 0.181012 (90.1281)
Neigh time (%) = 0 (0)
Comm  time (%) = 0.00172138 (0.857095)
Outpt time (%) = 0.00141191 (0.703008)
Other time (%) = 0.0166934 (8.31181)

Step Temp PotEng pe Press press
2000            0   -2213.3373   -2213.3373    -3383.889     3383.889
Loop time of 0.24141 on 1 procs for 200 steps with 511 atoms

Minimization stats:
  Stopping criterion = max iterations
  Energy initial, next-to-last, final =
  Force two-norm initial, final = 0.0271261 25.1686
  Force max component initial, final = 0.00282457 8.21318
  Final line search alpha, max atom move = 0 0
  Iterations, force evaluations = 200 200

Pair  time (%) = 0.209952 (86.9692)
Neigh time (%) = 0.013392 (5.5474)
Comm  time (%) = 0.00221658 (0.91818)
Outpt time (%) = 0.00144863 (0.600071)
Other time (%) = 0.0144005 (5.96516)

Step Temp PotEng pe Press press
1750            0   -2213.2883   -2213.2883   -3382.3726    3382.3726
Loop time of 0.163834 on 1 procs for 163 steps with 511 atoms

Minimization stats:
  Stopping criterion = force tolerance
  Energy initial, next-to-last, final =
  Force two-norm initial, final = 0.3445 0.00986619
  Force max component initial, final = 0.0373017 0.00075802
  Final line search alpha, max atom move = 0 0
  Iterations, force evaluations = 163 163

Pair  time (%) = 0.149939 (91.5191)
Neigh time (%) = 0 (0)
Comm  time (%) = 0.00133562 (0.815229)
Outpt time (%) = 0.00105548 (0.644237)
Other time (%) = 0.0115035 (7.02142)

Step Temp PotEng pe Press press
1913            0   -2213.3373   -2213.3373   -3383.4477    3383.4477
Loop time of 0.200194 on 1 procs for 200 steps with 511 atoms

Minimization stats:
  Stopping criterion = max iterations
  Energy initial, next-to-last, final =
  Force two-norm initial, final = 0.0118981 0.0658867
  Force max component initial, final = 0.000940733 0.00568605
  Final line search alpha, max atom move = 0 0
  Iterations, force evaluations = 200 200

Pair  time (%) = 0.182612 (91.2176)
Neigh time (%) = 0 (0)
Comm  time (%) = 0.00159001 (0.794236)
Outpt time (%) = 0.00139475 (0.696698)
Other time (%) = 0.0145972 (7.29151)

Step Temp PotEng pe Press press
1800            0   -2211.2073   -2211.2073   -3402.3071    3402.3071
Loop time of 0.197561 on 1 procs for 200 steps with 511 atoms

Minimization stats:
  Stopping criterion = max iterations
  Energy initial, next-to-last, final =
  Force two-norm initial, final = 6.03149 0.0347296
  Force max component initial, final = 2.68376 0.00472475
  Final line search alpha, max atom move = 0 0
  Iterations, force evaluations = 200 200

Pair  time (%) = 0.179916 (91.0686)
Neigh time (%) = 0 (0)
Comm  time (%) = 0.00162029 (0.820148)
Outpt time (%) = 0.00132704 (0.67171)
Other time (%) = 0.0146976 (7.4395)

Loop time of 0.088428 on 1 procs for 89 steps with 511 atoms

Minimization stats:
  Stopping criterion = force tolerance
  Energy initial, next-to-last, final =
  Force two-norm initial, final = 0.0347358 0.00925315
  Force max component initial, final = 0.00473262 0.0028707
  Final line search alpha, max atom move = 0 0
  Iterations, force evaluations = 89 89

Pair  time (%) = 0.0801225 (90.6076)
Neigh time (%) = 0 (0)
Comm  time (%) = 0.000730991 (0.826651)
Outpt time (%) = 0.000532866 (0.602598)
Other time (%) = 0.00704169 (7.96319)

Loop time of 0.195968 on 1 procs for 200 steps with 511 atoms

Minimization stats:
  Stopping criterion = max iterations
  Energy initial, next-to-last, final =
  Force two-norm initial, final = 6.03858 0.0266437
  Force max component initial, final = 2.70136 0.00346126
  Final line search alpha, max atom move = 0 0
  Iterations, force evaluations = 200 200

Pair  time (%) = 0.178126 (90.8956)
Neigh time (%) = 0 (0)
Comm  time (%) = 0.0015986 (0.815743)
Outpt time (%) = 0.00131869 (0.672912)
Other time (%) = 0.0149245 (7.61579)

Loop time of 0.0879021 on 1 procs for 89 steps with 511 atoms

Minimization stats:
  Stopping criterion = force tolerance
  Energy initial, next-to-last, final =
  Force two-norm initial, final = 0.0266437 0.00921751
  Force max component initial, final = 0.00346126 0.00100324
  Final line search alpha, max atom move = 0 0
  Iterations, force evaluations = 89 89

Pair  time (%) = 0.0799096 (90.9075)
Neigh time (%) = 0 (0)
Comm  time (%) = 0.000760555 (0.86523)
Outpt time (%) = 0.000527143 (0.599694)
Other time (%) = 0.00670481 (7.62759)

Loop time of 0.185138 on 1 procs for 187 steps with 511 atoms

Minimization stats:
  Stopping criterion = force tolerance
  Energy initial, next-to-last, final =
  Force two-norm initial, final = 0.323401 0.00558205
  Force max component initial, final = 0.057225 0.000559947
  Final line search alpha, max atom move = 0 0
  Iterations, force evaluations = 187 187

Pair  time (%) = 0.168504 (91.0154)
Neigh time (%) = 0 (0)
Comm  time (%) = 0.00152946 (0.826116)
Outpt time (%) = 0.00119805 (0.647114)
Other time (%) = 0.0139065 (7.51141)

Loop time of 0.00211215 on 1 procs for 1 steps with 511 atoms

Minimization stats:
  Stopping criterion = force tolerance
  Energy initial, next-to-last, final =
  Force two-norm initial, final = 0.00558205 0.00558205
  Force max component initial, final = 0.000559947 0.000559947
  Final line search alpha, max atom move = 0 0
  Iterations, force evaluations = 1 1

Pair  time (%) = 0.00189686 (89.807)
Neigh time (%) = 0 (0)
Comm  time (%) = 1.52588e-05 (0.722429)
Outpt time (%) = 0 (0)
Other time (%) = 0.000200033 (9.47059)

Loop time of 0.198935 on 1 procs for 200 steps with 511 atoms

Minimization stats:
  Stopping criterion = max iterations
  Energy initial, next-to-last, final =
  Force two-norm initial, final = 5.91543 0.0282521
  Force max component initial, final = 2.68841 0.00290346
  Final line search alpha, max atom move = 0 0
  Iterations, force evaluations = 200 200

Pair  time (%) = 0.181115 (91.0422)
Neigh time (%) = 0 (0)
Comm  time (%) = 0.00165486 (0.831861)
Outpt time (%) = 0.0013237 (0.665393)
Other time (%) = 0.0148416 (7.4605)

Loop time of 0.0939829 on 1 procs for 95 steps with 511 atoms

Minimization stats:
  Stopping criterion = force tolerance
  Energy initial, next-to-last, final =
  Force two-norm initial, final = 0.0282521 0.00871213
  Force max component initial, final = 0.00290346 0.00110242
  Final line search alpha, max atom move = 0 0
  Iterations, force evaluations = 95 95

Pair  time (%) = 0.0858381 (91.3337)
Neigh time (%) = 0 (0)
Comm  time (%) = 0.000761747 (0.810517)
Outpt time (%) = 0.000602961 (0.641564)
Other time (%) = 0.00678015 (7.21423)

Loop time of 0.193761 on 1 procs for 200 steps with 511 atoms

Minimization stats:
  Stopping criterion = max iterations
  Energy initial, next-to-last, final =
  Force two-norm initial, final = 5.89928 0.018358
  Force max component initial, final = 2.67498 0.00208655
  Final line search alpha, max atom move = 0 0
  Iterations, force evaluations = 200 200

Pair  time (%) = 0.17604 (90.8542)
Neigh time (%) = 0 (0)
Comm  time (%) = 0.00161958 (0.835863)
Outpt time (%) = 0.00132489 (0.683776)
Other time (%) = 0.0147765 (7.62613)

Loop time of 0.092854 on 1 procs for 95 steps with 511 atoms

Minimization stats:
  Stopping criterion = force tolerance
  Energy initial, next-to-last, final =
  Force two-norm initial, final = 0.0183572 0.00958325
  Force max component initial, final = 0.00209016 0.00134003
  Final line search alpha, max atom move = 0 0
  Iterations, force evaluations = 95 95

Pair  time (%) = 0.0843129 (90.8016)
Neigh time (%) = 0 (0)
Comm  time (%) = 0.000767231 (0.826277)
Outpt time (%) = 0.000597239 (0.643202)
Other time (%) = 0.00717664 (7.72895)

Loop time of 0.178432 on 1 procs for 179 steps with 511 atoms

Minimization stats:
  Stopping criterion = force tolerance
  Energy initial, next-to-last, final =
  Force two-norm initial, final = 1.02662 0.00582821
  Force max component initial, final = 0.263354 0.000714112
  Final line search alpha, max atom move = 0 0
  Iterations, force evaluations = 179 179

Pair  time (%) = 0.163257 (91.4953)
Neigh time (%) = 0 (0)
Comm  time (%) = 0.00143981 (0.806924)
Outpt time (%) = 0.00112939 (0.632952)
Other time (%) = 0.0126059 (7.06482)

Loop time of 0.00239897 on 1 procs for 1 steps with 511 atoms

Minimization stats:
  Stopping criterion = force tolerance
  Energy initial, next-to-last, final =
  Force two-norm initial, final = 0.00583463 0.00583463
  Force max component initial, final = 0.00065167 0.00065167
  Final line search alpha, max atom move = 0 0
  Iterations, force evaluations = 1 1

Pair  time (%) = 0.00217509 (90.6679)
Neigh time (%) = 0 (0)
Comm  time (%) = 1.64509e-05 (0.685748)
Outpt time (%) = 0 (0)
Other time (%) = 0.000207424 (8.64639)

Loop time of 0.197681 on 1 procs for 200 steps with 511 atoms

Minimization stats:
  Stopping criterion = max iterations
  Energy initial, next-to-last, final =
  Force two-norm initial, final = 6.10472 0.0102361
  Force max component initial, final = 2.84728 0.00180779
  Final line search alpha, max atom move = 0 0
  Iterations, force evaluations = 200 200

Pair  time (%) = 0.178943 (90.5211)
Neigh time (%) = 0 (0)
Comm  time (%) = 0.00169587 (0.857883)
Outpt time (%) = 0.00133491 (0.675283)
Other time (%) = 0.0157073 (7.94576)

Loop time of 0.0667078 on 1 procs for 67 steps with 511 atoms

Minimization stats:
  Stopping criterion = force tolerance
  Energy initial, next-to-last, final =
  Force two-norm initial, final = 0.0102871 0.00998654
  Force max component initial, final = 0.00183918 0.00171881
  Final line search alpha, max atom move = 0 0
  Iterations, force evaluations = 67 67

Pair  time (%) = 0.0603364 (90.4487)
Neigh time (%) = 0 (0)
Comm  time (%) = 0.000540018 (0.809527)
Outpt time (%) = 0.000402212 (0.602946)
Other time (%) = 0.00542927 (8.13887)

Loop time of 0.194623 on 1 procs for 200 steps with 511 atoms

Minimization stats:
  Stopping criterion = max iterations
  Energy initial, next-to-last, final =
  Force two-norm initial, final = 6.14217 0.0383172
  Force max component initial, final = 2.8723 0.0047198
  Final line search alpha, max atom move = 0 0
  Iterations, force evaluations = 200 200

Pair  time (%) = 0.17627 (90.5699)
Neigh time (%) = 0 (0)
Comm  time (%) = 0.00160623 (0.825301)
Outpt time (%) = 0.00131941 (0.67793)
Other time (%) = 0.0154276 (7.92691)

Loop time of 0.0877039 on 1 procs for 89 steps with 511 atoms

Minimization stats:
  Stopping criterion = force tolerance
  Energy initial, next-to-last, final =
  Force two-norm initial, final = 0.0383168 0.00830792
  Force max component initial, final = 0.00472141 0.00250143
  Final line search alpha, max atom move = 0 0
  Iterations, force evaluations = 89 89

Pair  time (%) = 0.0793819 (90.5113)
Neigh time (%) = 0 (0)
Comm  time (%) = 0.00072217 (0.823418)
Outpt time (%) = 0.000524044 (0.597515)
Other time (%) = 0.00707579 (8.06781)

Loop time of 0.194431 on 1 procs for 200 steps with 511 atoms

Minimization stats:
  Stopping criterion = max iterations
  Energy initial, next-to-last, final =
  Force two-norm initial, final = 6.11763 0.0441143
  Force max component initial, final = 2.82204 0.00499624
  Final line search alpha, max atom move = 0 0
  Iterations, force evaluations = 200 200

Pair  time (%) = 0.176169 (90.6075)
Neigh time (%) = 0 (0)
Comm  time (%) = 0.00158906 (0.817287)
Outpt time (%) = 0.00132203 (0.679948)
Other time (%) = 0.0153508 (7.89525)

Loop time of 0.0933969 on 1 procs for 96 steps with 511 atoms

Minimization stats:
  Stopping criterion = force tolerance
  Energy initial, next-to-last, final =
  Force two-norm initial, final = 0.0441143 0.00840237
  Force max component initial, final = 0.00499624 0.00140068
  Final line search alpha, max atom move = 0 0
  Iterations, force evaluations = 96 96

Pair  time (%) = 0.0850444 (91.057)
Neigh time (%) = 0 (0)
Comm  time (%) = 0.000775814 (0.830664)
Outpt time (%) = 0.000594854 (0.63691)
Other time (%) = 0.00698185 (7.47546)

Loop time of 0.194382 on 1 procs for 200 steps with 511 atoms

Minimization stats:
  Stopping criterion = max iterations
  Energy initial, next-to-last, final =
  Force two-norm initial, final = 6.0479 0.0184086
  Force max component initial, final = 2.83621 0.00230576
  Final line search alpha, max atom move = 0 0
  Iterations, force evaluations = 200 200

Pair  time (%) = 0.176021 (90.5544)
Neigh time (%) = 0 (0)
Comm  time (%) = 0.00164342 (0.845459)
Outpt time (%) = 0.00131798 (0.678035)
Other time (%) = 0.0153992 (7.92214)

Loop time of 0.236382 on 1 procs for 200 steps with 511 atoms

Minimization stats:
  Stopping criterion = max iterations
  Energy initial, next-to-last, final =
  Force two-norm initial, final = 0.0188891 24.3969
  Force max component initial, final = 0.00238544 7.92386
  Final line search alpha, max atom move = 0 0
  Iterations, force evaluations = 200 200

Pair  time (%) = 0.204033 (86.3151)
Neigh time (%) = 0.0138628 (5.8646)
Comm  time (%) = 0.00216842 (0.917336)
Outpt time (%) = 0.00135541 (0.573398)
Other time (%) = 0.014962 (6.32957)

Loop time of 0.194966 on 1 procs for 197 steps with 511 atoms

Minimization stats:
  Stopping criterion = force tolerance
  Energy initial, next-to-last, final =
  Force two-norm initial, final = 0.650227 0.00694553
  Force max component initial, final = 0.0796246 0.000550358
  Final line search alpha, max atom move = 0 0
  Iterations, force evaluations = 197 197

Pair  time (%) = 0.175868 (90.2044)
Neigh time (%) = 0 (0)
Comm  time (%) = 0.00161266 (0.827151)
Outpt time (%) = 0.00132537 (0.679795)
Other time (%) = 0.01616 (8.28863)

Loop time of 0.00213385 on 1 procs for 1 steps with 511 atoms

Minimization stats:
  Stopping criterion = force tolerance
  Energy initial, next-to-last, final =
  Force two-norm initial, final = 0.00694553 0.00694553
  Force max component initial, final = 0.000550358 0.000550358
  Final line search alpha, max atom move = 0 0
  Iterations, force evaluations = 1 1

Pair  time (%) = 0.00191092 (89.5531)
Neigh time (%) = 0 (0)
Comm  time (%) = 1.5974e-05 (0.748603)
Outpt time (%) = 0 (0)
Other time (%) = 0.000206947 (9.69832)

Loop time of 0.175266 on 1 procs for 180 steps with 511 atoms

Minimization stats:
  Stopping criterion = force tolerance
  Energy initial, next-to-last, final =
  Force two-norm initial, final = 0.609316 0.00824906
  Force max component initial, final = 0.0610932 0.000710472
  Final line search alpha, max atom move = 0 0
  Iterations, force evaluations = 180 180

Pair  time (%) = 0.158335 (90.3399)
Neigh time (%) = 0 (0)
Comm  time (%) = 0.00147915 (0.843945)
Outpt time (%) = 0.00111341 (0.635271)
Other time (%) = 0.0143383 (8.18085)

Loop time of 0.00207591 on 1 procs for 1 steps with 511 atoms

Minimization stats:
  Stopping criterion = force tolerance
  Energy initial, next-to-last, final =
  Force two-norm initial, final = 0.00824906 0.00824906
  Force max component initial, final = 0.000710472 0.000710472
  Final line search alpha, max atom move = 0 0
  Iterations, force evaluations = 1 1

Pair  time (%) = 0.00184822 (89.0318)
Neigh time (%) = 0 (0)
Comm  time (%) = 1.50204e-05 (0.723556)
Outpt time (%) = 0 (0)
Other time (%) = 0.000212669 (10.2446)

Loop time of 0.189391 on 1 procs for 193 steps with 511 atoms

Minimization stats:
  Stopping criterion = force tolerance
  Energy initial, next-to-last, final =
  Force two-norm initial, final = 0.633011 0.00944827
  Force max component initial, final = 0.0711637 0.000739614
  Final line search alpha, max atom move = 0 0
  Iterations, force evaluations = 193 193

Pair  time (%) = 0.171698 (90.658)
Neigh time (%) = 0 (0)
Comm  time (%) = 0.0015645 (0.826071)
Outpt time (%) = 0.00125265 (0.66141)
Other time (%) = 0.0148757 (7.85447)

Loop time of 0.00212622 on 1 procs for 1 steps with 511 atoms

Minimization stats:
  Stopping criterion = force tolerance
  Energy initial, next-to-last, final =
  Force two-norm initial, final = 0.00950321 0.00950321
  Force max component initial, final = 0.000796293 0.000796293
  Final line search alpha, max atom move = 0 0
  Iterations, force evaluations = 1 1

Pair  time (%) = 0.00189972 (89.3474)
Neigh time (%) = 0 (0)
Comm  time (%) = 1.57356e-05 (0.740076)
Outpt time (%) = 0 (0)
Other time (%) = 0.000210762 (9.91254)

Loop time of 0.168255 on 1 procs for 174 steps with 511 atoms

Minimization stats:
  Stopping criterion = force tolerance
  Energy initial, next-to-last, final =
  Force two-norm initial, final = 0.459655 0.00967851
  Force max component initial, final = 0.0415206 0.000900576
  Final line search alpha, max atom move = 0 0
  Iterations, force evaluations = 174 174

Pair  time (%) = 0.152963 (90.9113)
Neigh time (%) = 0 (0)
Comm  time (%) = 0.00141072 (0.838443)
Outpt time (%) = 0.00111938 (0.665285)
Other time (%) = 0.0127621 (7.58495)

Loop time of 0.00207496 on 1 procs for 1 steps with 511 atoms

Minimization stats:
  Stopping criterion = force tolerance
  Energy initial, next-to-last, final =
  Force two-norm initial, final = 0.00916534 0.00916534
  Force max component initial, final = 0.000823438 0.000823438
  Final line search alpha, max atom move = 0 0
  Iterations, force evaluations = 1 1

Pair  time (%) = 0.00185204 (89.2566)
Neigh time (%) = 0 (0)
Comm  time (%) = 1.71661e-05 (0.827301)
Outpt time (%) = 0 (0)
Other time (%) = 0.000205755 (9.91612)

Loop time of 0.166323 on 1 procs for 171 steps with 511 atoms

Minimization stats:
  Stopping criterion = force tolerance
  Energy initial, next-to-last, final =
  Force two-norm initial, final = 0.449794 0.00710741
  Force max component initial, final = 0.0562533 0.000547492
  Final line search alpha, max atom move = 0 0
  Iterations, force evaluations = 171 171

Pair  time (%) = 0.150525 (90.5018)
Neigh time (%) = 0 (0)
Comm  time (%) = 0.00136876 (0.822954)
Outpt time (%) = 0.00113058 (0.67975)
Other time (%) = 0.0132983 (7.99545)

Loop time of 0.00206399 on 1 procs for 1 steps with 511 atoms

Minimization stats:
  Stopping criterion = force tolerance
  Energy initial, next-to-last, final =
  Force two-norm initial, final = 0.00710741 0.00710741
  Force max component initial, final = 0.000547492 0.000547492
  Final line search alpha, max atom move = 0 0
  Iterations, force evaluations = 1 1

Pair  time (%) = 0.00185108 (89.6846)
Neigh time (%) = 0 (0)
Comm  time (%) = 1.52588e-05 (0.739286)
Outpt time (%) = 0 (0)
Other time (%) = 0.000197649 (9.57607)

Loop time of 0.172789 on 1 procs for 174 steps with 511 atoms

Minimization stats:
  Stopping criterion = force tolerance
  Energy initial, next-to-last, final =
  Force two-norm initial, final = 0.454947 0.00993767
  Force max component initial, final = 0.0602367 0.00110121
  Final line search alpha, max atom move = 0 0
  Iterations, force evaluations = 174 174

Pair  time (%) = 0.156205 (90.4019)
Neigh time (%) = 0 (0)
Comm  time (%) = 0.00142288 (0.823479)
Outpt time (%) = 0.00114012 (0.659832)
Other time (%) = 0.0140214 (8.11475)

Loop time of 0.0679121 on 1 procs for 68 steps with 511 atoms

Minimization stats:
  Stopping criterion = force tolerance
  Energy initial, next-to-last, final =
  Force two-norm initial, final = 0.0104926 0.00999115
  Force max component initial, final = 0.00112799 0.00102114
  Final line search alpha, max atom move = 0 0
  Iterations, force evaluations = 68 68

Pair  time (%) = 0.0613608 (90.3533)
Neigh time (%) = 0 (0)
Comm  time (%) = 0.000541449 (0.797279)
Outpt time (%) = 0.000460148 (0.677564)
Other time (%) = 0.00554967 (8.17184)

Loop time of 0.161481 on 1 procs for 161 steps with 511 atoms

Minimization stats:
  Stopping criterion = force tolerance
  Energy initial, next-to-last, final =
  Force two-norm initial, final = 0.329684 0.00607163
  Force max component initial, final = 0.0290021 0.000593323
  Final line search alpha, max atom move = 0 0
  Iterations, force evaluations = 161 161

Pair  time (%) = 0.145187 (89.9098)
Neigh time (%) = 0 (0)
Comm  time (%) = 0.00138664 (0.858704)
Outpt time (%) = 0.00106454 (0.659235)
Other time (%) = 0.0138426 (8.57227)

Loop time of 0.00207686 on 1 procs for 1 steps with 511 atoms

Minimization stats:
  Stopping criterion = force tolerance
  Energy initial, next-to-last, final =
  Force two-norm initial, final = 0.00607163 0.00607163
  Force max component initial, final = 0.000593323 0.000593323
  Final line search alpha, max atom move = 0 0
  Iterations, force evaluations = 1 1

Pair  time (%) = 0.00185013 (89.0828)
Neigh time (%) = 0 (0)
Comm  time (%) = 1.81198e-05 (0.87246)
Outpt time (%) = 0 (0)
Other time (%) = 0.000208616 (10.0448)

Loop time of 0.157415 on 1 procs for 159 steps with 511 atoms

Minimization stats:
  Stopping criterion = force tolerance
  Energy initial, next-to-last, final =
  Force two-norm initial, final = 0.338295 0.00439504
  Force max component initial, final = 0.0488133 0.000424987
  Final line search alpha, max atom move = 0 0
  Iterations, force evaluations = 159 159

Pair  time (%) = 0.142182 (90.3229)
Neigh time (%) = 0 (0)
Comm  time (%) = 0.00138593 (0.880428)
Outpt time (%) = 0.00100446 (0.638095)
Other time (%) = 0.0128429 (8.15861)

Loop time of 0.00220013 on 1 procs for 1 steps with 511 atoms

Minimization stats:
  Stopping criterion = force tolerance
  Energy initial, next-to-last, final =
  Force two-norm initial, final = 0.00439504 0.00439504
  Force max component initial, final = 0.000424987 0.000424987
  Final line search alpha, max atom move = 0 0
  Iterations, force evaluations = 1 1

Pair  time (%) = 0.00198293 (90.1279)
Neigh time (%) = 0 (0)
Comm  time (%) = 1.57356e-05 (0.715215)
Outpt time (%) = 0 (0)
Other time (%) = 0.000201464 (9.15691)

Loop time of 0.163387 on 1 procs for 167 steps with 511 atoms

Minimization stats:
  Stopping criterion = force tolerance
  Energy initial, next-to-last, final =
  Force two-norm initial, final = 0.356424 0.00583932
  Force max component initial, final = 0.0387665 0.000487813
  Final line search alpha, max atom move = 0 0
  Iterations, force evaluations = 167 167

Pair  time (%) = 0.148154 (90.6767)
Neigh time (%) = 0 (0)
Comm  time (%) = 0.00134397 (0.822567)
Outpt time (%) = 0.00105882 (0.648043)
Other time (%) = 0.0128303 (7.85269)

Loop time of 0.00207615 on 1 procs for 1 steps with 511 atoms

Minimization stats:
  Stopping criterion = force tolerance
  Energy initial, next-to-last, final =
  Force two-norm initial, final = 0.00583932 0.00583932
  Force max component initial, final = 0.000487813 0.000487813
  Final line search alpha, max atom move = 0 0
  Iterations, force evaluations = 1 1

Pair  time (%) = 0.0018518 (89.1938)
Neigh time (%) = 0 (0)
Comm  time (%) = 1.69277e-05 (0.815342)
Outpt time (%) = 0 (0)
Other time (%) = 0.000207424 (9.99081)

Loop time of 0.16148 on 1 procs for 167 steps with 511 atoms

Minimization stats:
  Stopping criterion = force tolerance
  Energy initial, next-to-last, final =
  Force two-norm initial, final = 0.292372 0.00911361
  Force max component initial, final = 0.0269889 0.000736877
  Final line search alpha, max atom move = 0 0
  Iterations, force evaluations = 167 167

Pair  time (%) = 0.146557 (90.7588)
Neigh time (%) = 0 (0)
Comm  time (%) = 0.00135565 (0.839515)
Outpt time (%) = 0.00105166 (0.651266)
Other time (%) = 0.0125153 (7.75038)

Loop time of 0.00207305 on 1 procs for 1 steps with 511 atoms

Minimization stats:
  Stopping criterion = force tolerance
  Energy initial, next-to-last, final =
  Force two-norm initial, final = 0.00934346 0.00934346
  Force max component initial, final = 0.000803747 0.000803747
  Final line search alpha, max atom move = 0 0
  Iterations, force evaluations = 1 1

Pair  time (%) = 0.00184703 (89.0972)
Neigh time (%) = 0 (0)
Comm  time (%) = 1.5974e-05 (0.770558)
Outpt time (%) = 0 (0)
Other time (%) = 0.000210047 (10.1323)

Loop time of 0.152832 on 1 procs for 157 steps with 511 atoms

Minimization stats:
  Stopping criterion = force tolerance
  Energy initial, next-to-last, final =
  Force two-norm initial, final = 0.225604 0.00405008
  Force max component initial, final = 0.0177168 0.000335383
  Final line search alpha, max atom move = 0 0
  Iterations, force evaluations = 157 157

Pair  time (%) = 0.138287 (90.483)
Neigh time (%) = 0 (0)
Comm  time (%) = 0.00126386 (0.826958)
Outpt time (%) = 0.000985622 (0.644906)
Other time (%) = 0.0122955 (8.0451)

Loop time of 0.00214601 on 1 procs for 1 steps with 511 atoms

Minimization stats:
  Stopping criterion = force tolerance
  Energy initial, next-to-last, final =
  Force two-norm initial, final = 0.00405008 0.00405008
  Force max component initial, final = 0.000335383 0.000335383
  Final line search alpha, max atom move = 0 0
  Iterations, force evaluations = 1 1

Pair  time (%) = 0.0019331 (90.0789)
Neigh time (%) = 0 (0)
Comm  time (%) = 1.40667e-05 (0.655483)
Outpt time (%) = 0 (0)
Other time (%) = 0.000198841 (9.26564)

Loop time of 0.154385 on 1 procs for 157 steps with 511 atoms

Minimization stats:
  Stopping criterion = force tolerance
  Energy initial, next-to-last, final =
  Force two-norm initial, final = 0.309961 0.00716295
  Force max component initial, final = 0.0625706 0.000562822
  Final line search alpha, max atom move = 0 0
  Iterations, force evaluations = 157 157

Pair  time (%) = 0.139282 (90.2174)
Neigh time (%) = 0 (0)
Comm  time (%) = 0.00126457 (0.819104)
Outpt time (%) = 0.00098753 (0.639655)
Other time (%) = 0.0128508 (8.32385)

Loop time of 0.00209689 on 1 procs for 1 steps with 511 atoms

Minimization stats:
  Stopping criterion = force tolerance
  Energy initial, next-to-last, final =
  Force two-norm initial, final = 0.00716295 0.00716295
  Force max component initial, final = 0.000562822 0.000562822
  Final line search alpha, max atom move = 0 0
  Iterations, force evaluations = 1 1

Pair  time (%) = 0.00185108 (88.2774)
Neigh time (%) = 0 (0)
Comm  time (%) = 1.57356e-05 (0.750426)
Outpt time (%) = 0 (0)
Other time (%) = 0.000230074 (10.9721)

Loop time of 0.178537 on 1 procs for 184 steps with 511 atoms

Minimization stats:
  Stopping criterion = force tolerance
  Energy initial, next-to-last, final =
  Force two-norm initial, final = 0.404241 0.00996929
  Force max component initial, final = 0.0557971 0.000902703
  Final line search alpha, max atom move = 0 0
  Iterations, force evaluations = 184 184

Pair  time (%) = 0.161681 (90.5589)
Neigh time (%) = 0 (0)
Comm  time (%) = 0.0015018 (0.841169)
Outpt time (%) = 0.00117898 (0.660356)
Other time (%) = 0.0141752 (7.93962)

Loop time of 0.193662 on 1 procs for 200 steps with 511 atoms

Minimization stats:
  Stopping criterion = max iterations
  Energy initial, next-to-last, final =
  Force two-norm initial, final = 0.0177475 0.0595529
  Force max component initial, final = 0.0016626 0.00688675
  Final line search alpha, max atom move = 0 0
  Iterations, force evaluations = 200 200

Pair  time (%) = 0.174728 (90.2234)
Neigh time (%) = 0 (0)
Comm  time (%) = 0.00158739 (0.819671)
Outpt time (%) = 0.00137925 (0.712195)
Other time (%) = 0.0159669 (8.24472)

Loop time of 0.158804 on 1 procs for 163 steps with 511 atoms

Minimization stats:
  Stopping criterion = force tolerance
  Energy initial, next-to-last, final =
  Force two-norm initial, final = 0.270492 0.00563105
  Force max component initial, final = 0.0261 0.000501524
  Final line search alpha, max atom move = 0 0
  Iterations, force evaluations = 163 163

Pair  time (%) = 0.143062 (90.0871)
Neigh time (%) = 0 (0)
Comm  time (%) = 0.00131345 (0.827088)
Outpt time (%) = 0.00105262 (0.662841)
Other time (%) = 0.013376 (8.42296)

Loop time of 0.00207996 on 1 procs for 1 steps with 511 atoms

Minimization stats:
  Stopping criterion = force tolerance
  Energy initial, next-to-last, final =
  Force two-norm initial, final = 0.00563105 0.00563105
  Force max component initial, final = 0.000501524 0.000501524
  Final line search alpha, max atom move = 0 0
  Iterations, force evaluations = 1 1

Pair  time (%) = 0.00184464 (88.6864)
Neigh time (%) = 0 (0)
Comm  time (%) = 1.5974e-05 (0.767996)
Outpt time (%) = 0 (0)
Other time (%) = 0.000219345 (10.5456)

Loop time of 0.175577 on 1 procs for 180 steps with 511 atoms

Minimization stats:
  Stopping criterion = force tolerance
  Energy initial, next-to-last, final =
  Force two-norm initial, final = 0.435059 0.00521104
  Force max component initial, final = 0.0495839 0.000411504
  Final line search alpha, max atom move = 0 0
  Iterations, force evaluations = 180 180

Pair  time (%) = 0.158155 (90.0773)
Neigh time (%) = 0 (0)
Comm  time (%) = 0.00145769 (0.830228)
Outpt time (%) = 0.00111961 (0.637676)
Other time (%) = 0.0148447 (8.45478)

Loop time of 0.00207615 on 1 procs for 1 steps with 511 atoms

Minimization stats:
  Stopping criterion = force tolerance
  Energy initial, next-to-last, final =
  Force two-norm initial, final = 0.00521104 0.00521104
  Force max component initial, final = 0.000411504 0.000411504
  Final line search alpha, max atom move = 0 0
  Iterations, force evaluations = 1 1

Pair  time (%) = 0.00184894 (89.056)
Neigh time (%) = 0 (0)
Comm  time (%) = 1.4782e-05 (0.711989)
Outpt time (%) = 0 (0)
Other time (%) = 0.000212431 (10.232)

Loop time of 0.17282 on 1 procs for 178 steps with 511 atoms

Minimization stats:
  Stopping criterion = force tolerance
  Energy initial, next-to-last, final =
  Force two-norm initial, final = 0.450866 0.00943025
  Force max component initial, final = 0.0607719 0.000856796
  Final line search alpha, max atom move = 0 0
  Iterations, force evaluations = 178 178

Pair  time (%) = 0.156644 (90.64)
Neigh time (%) = 0 (0)
Comm  time (%) = 0.0014348 (0.830229)
Outpt time (%) = 0.00112176 (0.649091)
Other time (%) = 0.0136194 (7.88069)

Loop time of 0.198219 on 1 procs for 200 steps with 511 atoms

Minimization stats:
  Stopping criterion = max iterations
  Energy initial, next-to-last, final =
  Force two-norm initial, final = 0.0161147 0.0731073
  Force max component initial, final = 0.00146062 0.00455653
  Final line search alpha, max atom move = 0 0
  Iterations, force evaluations = 200 200

Pair  time (%) = 0.178993 (90.3008)
Neigh time (%) = 0 (0)
Comm  time (%) = 0.00184774 (0.932174)
Outpt time (%) = 0.00139332 (0.702919)
Other time (%) = 0.0159845 (8.06409)

Loop time of 0.160108 on 1 procs for 164 steps with 511 atoms

Minimization stats:
  Stopping criterion = force tolerance
  Energy initial, next-to-last, final =
  Force two-norm initial, final = 0.474533 0.00582722
  Force max component initial, final = 0.0642965 0.00060412
  Final line search alpha, max atom move = 0 0
  Iterations, force evaluations = 164 164

Pair  time (%) = 0.143911 (89.8834)
Neigh time (%) = 0 (0)
Comm  time (%) = 0.00133014 (0.830775)
Outpt time (%) = 0.00104809 (0.654613)
Other time (%) = 0.0138192 (8.63118)

Loop time of 0.00207496 on 1 procs for 1 steps with 511 atoms

Minimization stats:
  Stopping criterion = force tolerance
  Energy initial, next-to-last, final =
  Force two-norm initial, final = 0.00582722 0.00582722
  Force max component initial, final = 0.00060412 0.00060412
  Final line search alpha, max atom move = 0 0
  Iterations, force evaluations = 1 1

Pair  time (%) = 0.00184894 (89.1072)
Neigh time (%) = 0 (0)
Comm  time (%) = 1.43051e-05 (0.689417)
Outpt time (%) = 0 (0)
Other time (%) = 0.000211716 (10.2034)

Loop time of 0.173743 on 1 procs for 178 steps with 511 atoms

Minimization stats:
  Stopping criterion = force tolerance
  Energy initial, next-to-last, final =
  Force two-norm initial, final = 0.414534 0.00823404
  Force max component initial, final = 0.0572001 0.000810427
  Final line search alpha, max atom move = 0 0
  Iterations, force evaluations = 178 178

Pair  time (%) = 0.156784 (90.2392)
Neigh time (%) = 0 (0)
Comm  time (%) = 0.00142622 (0.820879)
Outpt time (%) = 0.0011127 (0.640428)
Other time (%) = 0.0144198 (8.2995)

Loop time of 0.00208998 on 1 procs for 1 steps with 511 atoms

Minimization stats:
  Stopping criterion = force tolerance
  Energy initial, next-to-last, final =
  Force two-norm initial, final = 0.00823404 0.00823404
  Force max component initial, final = 0.000810427 0.000810427
  Final line search alpha, max atom move = 0 0
  Iterations, force evaluations = 1 1

Pair  time (%) = 0.00185275 (88.6493)
Neigh time (%) = 0 (0)
Comm  time (%) = 1.50204e-05 (0.718686)
Outpt time (%) = 0 (0)
Other time (%) = 0.000222206 (10.632)

Loop time of 0.160708 on 1 procs for 165 steps with 511 atoms

Minimization stats:
  Stopping criterion = force tolerance
  Energy initial, next-to-last, final =
  Force two-norm initial, final = 0.394746 0.00900442
  Force max component initial, final = 0.0477873 0.000741793
  Final line search alpha, max atom move = 0 0
  Iterations, force evaluations = 165 165

Pair  time (%) = 0.145253 (90.3832)
Neigh time (%) = 0 (0)
Comm  time (%) = 0.00132442 (0.824113)
Outpt time (%) = 0.00104976 (0.653208)
Other time (%) = 0.0130808 (8.13951)

Loop time of 0.00207782 on 1 procs for 1 steps with 511 atoms

Minimization stats:
  Stopping criterion = force tolerance
  Energy initial, next-to-last, final =
  Force two-norm initial, final = 0.00947889 0.00947889
  Force max component initial, final = 0.000882408 0.000882408
  Final line search alpha, max atom move = 0 0
  Iterations, force evaluations = 1 1

Pair  time (%) = 0.00185108 (89.0878)
Neigh time (%) = 0 (0)
Comm  time (%) = 1.62125e-05 (0.780264)
Outpt time (%) = 0 (0)
Other time (%) = 0.000210524 (10.132)

Loop time of 0.159688 on 1 procs for 163 steps with 511 atoms

Minimization stats:
  Stopping criterion = force tolerance
  Energy initial, next-to-last, final =
  Force two-norm initial, final = 0.364247 0.00508033
  Force max component initial, final = 0.042781 0.000503257
  Final line search alpha, max atom move = 0 0
  Iterations, force evaluations = 163 163

Pair  time (%) = 0.144209 (90.307)
Neigh time (%) = 0 (0)
Comm  time (%) = 0.00132465 (0.829526)
Outpt time (%) = 0.00109053 (0.682911)
Other time (%) = 0.0130634 (8.1806)

Loop time of 0.00207806 on 1 procs for 1 steps with 511 atoms

Minimization stats:
  Stopping criterion = force tolerance
  Energy initial, next-to-last, final =
  Force two-norm initial, final = 0.00508033 0.00508033
  Force max component initial, final = 0.000503257 0.000503257
  Final line search alpha, max atom move = 0 0
  Iterations, force evaluations = 1 1

Pair  time (%) = 0.0018487 (88.9628)
Neigh time (%) = 0 (0)
Comm  time (%) = 1.57356e-05 (0.757228)
Outpt time (%) = 0 (0)
Other time (%) = 0.000213623 (10.2799)

Loop time of 0.167444 on 1 procs for 171 steps with 511 atoms

Minimization stats:
  Stopping criterion = force tolerance
  Energy initial, next-to-last, final =
  Force two-norm initial, final = 0.32681 0.00355563
  Force max component initial, final = 0.0748899 0.000325977
  Final line search alpha, max atom move = 0 0
  Iterations, force evaluations = 171 171

Pair  time (%) = 0.151167 (90.2791)
Neigh time (%) = 0 (0)
Comm  time (%) = 0.00141239 (0.843501)
Outpt time (%) = 0.00112247 (0.670358)
Other time (%) = 0.0137422 (8.20705)

Loop time of 0.0020771 on 1 procs for 1 steps with 511 atoms

Minimization stats:
  Stopping criterion = force tolerance
  Energy initial, next-to-last, final =
  Force two-norm initial, final = 0.00355563 0.00355563
  Force max component initial, final = 0.000325977 0.000325977
  Final line search alpha, max atom move = 0 0
  Iterations, force evaluations = 1 1

Pair  time (%) = 0.00184798 (88.9692)
Neigh time (%) = 0 (0)
Comm  time (%) = 1.5974e-05 (0.769054)
Outpt time (%) = 0 (0)
Other time (%) = 0.000213146 (10.2617)

Loop time of 0.183218 on 1 procs for 186 steps with 511 atoms

Minimization stats:
  Stopping criterion = force tolerance
  Energy initial, next-to-last, final =
  Force two-norm initial, final = 0.39413 0.00721557
  Force max component initial, final = 0.041311 0.000601206
  Final line search alpha, max atom move = 0 0
  Iterations, force evaluations = 186 186

Pair  time (%) = 0.167056 (91.1787)
Neigh time (%) = 0 (0)
Comm  time (%) = 0.00152612 (0.832952)
Outpt time (%) = 0.00121427 (0.662744)
Other time (%) = 0.0134218 (7.32558)

Loop time of 0.00212598 on 1 procs for 1 steps with 511 atoms

Minimization stats:
  Stopping criterion = force tolerance
  Energy initial, next-to-last, final =
  Force two-norm initial, final = 0.00721557 0.00721557
  Force max component initial, final = 0.000601206 0.000601206
  Final line search alpha, max atom move = 0 0
  Iterations, force evaluations = 1 1

Pair  time (%) = 0.00191689 (90.1649)
Neigh time (%) = 0 (0)
Comm  time (%) = 1.57356e-05 (0.740159)
Outpt time (%) = 0 (0)
Other time (%) = 0.000193357 (9.09499)

Loop time of 0.154269 on 1 procs for 158 steps with 511 atoms

Minimization stats:
  Stopping criterion = force tolerance
  Energy initial, next-to-last, final =
  Force two-norm initial, final = 0.345979 0.00600779
  Force max component initial, final = 0.0441688 0.000621229
  Final line search alpha, max atom move = 0 0
  Iterations, force evaluations = 158 158

Pair  time (%) = 0.139204 (90.2346)
Neigh time (%) = 0 (0)
Comm  time (%) = 0.0012908 (0.836719)
Outpt time (%) = 0.000980139 (0.635344)
Other time (%) = 0.012794 (8.29332)

Loop time of 0.00208092 on 1 procs for 1 steps with 511 atoms

Minimization stats:
  Stopping criterion = force tolerance
  Energy initial, next-to-last, final =
  Force two-norm initial, final = 0.00600779 0.00600779
  Force max component initial, final = 0.000621229 0.000621229
  Final line search alpha, max atom move = 0 0
  Iterations, force evaluations = 1 1

Pair  time (%) = 0.00184989 (88.8978)
Neigh time (%) = 0 (0)
Comm  time (%) = 1.5974e-05 (0.767644)
Outpt time (%) = 0 (0)
Other time (%) = 0.000215054 (10.3346)

Loop time of 0.160636 on 1 procs for 164 steps with 511 atoms

Minimization stats:
  Stopping criterion = force tolerance
  Energy initial, next-to-last, final =
  Force two-norm initial, final = 0.305967 0.00678066
  Force max component initial, final = 0.0386335 0.000641058
  Final line search alpha, max atom move = 0 0
  Iterations, force evaluations = 164 164

Pair  time (%) = 0.145033 (90.2864)
Neigh time (%) = 0 (0)
Comm  time (%) = 0.00134945 (0.840065)
Outpt time (%) = 0.00105786 (0.658546)
Other time (%) = 0.0131962 (8.21498)

Loop time of 0.00207496 on 1 procs for 1 steps with 511 atoms

Minimization stats:
  Stopping criterion = force tolerance
  Energy initial, next-to-last, final =
  Force two-norm initial, final = 0.00678066 0.00678066
  Force max component initial, final = 0.000641058 0.000641058
  Final line search alpha, max atom move = 0 0
  Iterations, force evaluations = 1 1

Pair  time (%) = 0.00184798 (89.0612)
Neigh time (%) = 0 (0)
Comm  time (%) = 1.69277e-05 (0.815811)
Outpt time (%) = 0 (0)
Other time (%) = 0.000210047 (10.1229)

Loop time of 0.166645 on 1 procs for 172 steps with 511 atoms

Minimization stats:
  Stopping criterion = force tolerance
  Energy initial, next-to-last, final =
  Force two-norm initial, final = 0.358926 0.00896467
  Force max component initial, final = 0.03174 0.000840204
  Final line search alpha, max atom move = 0 0
  Iterations, force evaluations = 172 172

Pair  time (%) = 0.150999 (90.6112)
Neigh time (%) = 0 (0)
Comm  time (%) = 0.00137758 (0.826657)
Outpt time (%) = 0.0011332 (0.68001)
Other time (%) = 0.0131352 (7.88214)

Loop time of 0.00207901 on 1 procs for 1 steps with 511 atoms

Minimization stats:
  Stopping criterion = force tolerance
  Energy initial, next-to-last, final =
  Force two-norm initial, final = 0.00894393 0.00894393
  Force max component initial, final = 0.000902005 0.000902005
  Final line search alpha, max atom move = 0 0
  Iterations, force evaluations = 1 1

Pair  time (%) = 0.00185275 (89.117)
Neigh time (%) = 0 (0)
Comm  time (%) = 1.57356e-05 (0.756881)
Outpt time (%) = 0 (0)
Other time (%) = 0.000210524 (10.1261)

Loop time of 0.166089 on 1 procs for 171 steps with 511 atoms

Minimization stats:
  Stopping criterion = force tolerance
  Energy initial, next-to-last, final =
  Force two-norm initial, final = 0.341138 0.00590665
  Force max component initial, final = 0.0310609 0.000757752
  Final line search alpha, max atom move = 0 0
  Iterations, force evaluations = 171 171

Pair  time (%) = 0.150694 (90.7311)
Neigh time (%) = 0 (0)
Comm  time (%) = 0.00138664 (0.834879)
Outpt time (%) = 0.00113297 (0.682143)
Other time (%) = 0.0128751 (7.75191)

Loop time of 0.00206184 on 1 procs for 1 steps with 511 atoms

Minimization stats:
  Stopping criterion = force tolerance
  Energy initial, next-to-last, final =
  Force two-norm initial, final = 0.00590665 0.00590665
  Force max component initial, final = 0.000757752 0.000757752
  Final line search alpha, max atom move = 0 0
  Iterations, force evaluations = 1 1

Pair  time (%) = 0.00184774 (89.6161)
Neigh time (%) = 0 (0)
Comm  time (%) = 1.5974e-05 (0.774746)
Outpt time (%) = 0 (0)
Other time (%) = 0.000198126 (9.60916)

Loop time of 0.180108 on 1 procs for 183 steps with 511 atoms

Minimization stats:
  Stopping criterion = force tolerance
  Energy initial, next-to-last, final =
  Force two-norm initial, final = 0.311702 0.0060886
  Force max component initial, final = 0.0264202 0.000360479
  Final line search alpha, max atom move = 0 0
  Iterations, force evaluations = 183 183

Pair  time (%) = 0.162373 (90.1533)
Neigh time (%) = 0 (0)
Comm  time (%) = 0.00147152 (0.81702)
Outpt time (%) = 0.00119042 (0.66095)
Other time (%) = 0.0150728 (8.36877)

Loop time of 0.0020771 on 1 procs for 1 steps with 511 atoms

Minimization stats:
  Stopping criterion = force tolerance
  Energy initial, next-to-last, final =
  Force two-norm initial, final = 0.0060886 0.0060886
  Force max component initial, final = 0.000360479 0.000360479
  Final line search alpha, max atom move = 0 0
  Iterations, force evaluations = 1 1

Pair  time (%) = 0.00185108 (89.1185)
Neigh time (%) = 0 (0)
Comm  time (%) = 1.38283e-05 (0.665748)
Outpt time (%) = 0 (0)
Other time (%) = 0.000212193 (10.2158)

Loop time of 0.168044 on 1 procs for 169 steps with 511 atoms

Minimization stats:
  Stopping criterion = force tolerance
  Energy initial, next-to-last, final =
  Force two-norm initial, final = 1.05445 0.00945437
  Force max component initial, final = 0.227922 0.00112315
  Final line search alpha, max atom move = 0 0
  Iterations, force evaluations = 169 169

Pair  time (%) = 0.15356 (91.3809)
Neigh time (%) = 0 (0)
Comm  time (%) = 0.0013597 (0.809134)
Outpt time (%) = 0.00104165 (0.619868)
Other time (%) = 0.0120826 (7.19012)

Loop time of 0.00228095 on 1 procs for 1 steps with 511 atoms

Minimization stats:
  Stopping criterion = force tolerance
  Energy initial, next-to-last, final =
  Force two-norm initial, final = 0.00984417 0.00984417
  Force max component initial, final = 0.00166573 0.00166573
  Final line search alpha, max atom move = 0 0
  Iterations, force evaluations = 1 1

Pair  time (%) = 0.0020659 (90.5718)
Neigh time (%) = 0 (0)
Comm  time (%) = 1.5974e-05 (0.700324)
Outpt time (%) = 0 (0)
Other time (%) = 0.00019908 (8.72792)

Loop time of 0.165882 on 1 procs for 170 steps with 511 atoms

Minimization stats:
  Stopping criterion = force tolerance
  Energy initial, next-to-last, final =
  Force two-norm initial, final = 0.421095 0.00832061
  Force max component initial, final = 0.0387123 0.000767029
  Final line search alpha, max atom move = 0 0
  Iterations, force evaluations = 170 170

Pair  time (%) = 0.14991 (90.3715)
Neigh time (%) = 0 (0)
Comm  time (%) = 0.00137663 (0.829885)
Outpt time (%) = 0.00105238 (0.634415)
Other time (%) = 0.0135429 (8.16418)

Loop time of 0.00206494 on 1 procs for 1 steps with 511 atoms

Minimization stats:
  Stopping criterion = force tolerance
  Energy initial, next-to-last, final =
  Force two-norm initial, final = 0.00832061 0.00832061
  Force max component initial, final = 0.000767029 0.000767029
  Final line search alpha, max atom move = 0 0
  Iterations, force evaluations = 1 1

Pair  time (%) = 0.00184703 (89.4469)
Neigh time (%) = 0 (0)
Comm  time (%) = 1.38283e-05 (0.669669)
Outpt time (%) = 0 (0)
Other time (%) = 0.000204086 (9.88339)

Loop time of 0.173265 on 1 procs for 175 steps with 511 atoms

Minimization stats:
  Stopping criterion = force tolerance
  Energy initial, next-to-last, final =
  Force two-norm initial, final = 0.322766 0.00607314
  Force max component initial, final = 0.0460949 0.000434021
  Final line search alpha, max atom move = 0 0
  Iterations, force evaluations = 175 175

Pair  time (%) = 0.157166 (90.7086)
Neigh time (%) = 0 (0)
Comm  time (%) = 0.00140738 (0.812273)
Outpt time (%) = 0.00113249 (0.653616)
Other time (%) = 0.0135589 (7.82551)

Loop time of 0.0020659 on 1 procs for 1 steps with 511 atoms

Minimization stats:
  Stopping criterion = force tolerance
  Energy initial, next-to-last, final =
  Force two-norm initial, final = 0.00607314 0.00607314
  Force max component initial, final = 0.000434021 0.000434021
  Final line search alpha, max atom move = 0 0
  Iterations, force evaluations = 1 1

Pair  time (%) = 0.00185108 (89.6018)
Neigh time (%) = 0 (0)
Comm  time (%) = 1.5974e-05 (0.773226)
Outpt time (%) = 0 (0)
Other time (%) = 0.000198841 (9.62493)

Loop time of 0.154695 on 1 procs for 158 steps with 511 atoms

Minimization stats:
  Stopping criterion = force tolerance
  Energy initial, next-to-last, final =
  Force two-norm initial, final = 0.354399 0.00766246
  Force max component initial, final = 0.0722106 0.000598544
  Final line search alpha, max atom move = 0 0
  Iterations, force evaluations = 158 158

Pair  time (%) = 0.140922 (91.0965)
Neigh time (%) = 0 (0)
Comm  time (%) = 0.00128055 (0.827789)
Outpt time (%) = 0.000995636 (0.643613)
Other time (%) = 0.011497 (7.43207)

Loop time of 0.00211215 on 1 procs for 1 steps with 511 atoms

Minimization stats:
  Stopping criterion = force tolerance
  Energy initial, next-to-last, final =
  Force two-norm initial, final = 0.00766246 0.00766246
  Force max component initial, final = 0.000598544 0.000598544
  Final line search alpha, max atom move = 0 0
  Iterations, force evaluations = 1 1

Pair  time (%) = 0.0019002 (89.965)
Neigh time (%) = 0 (0)
Comm  time (%) = 1.57356e-05 (0.745005)
Outpt time (%) = 0 (0)
Other time (%) = 0.000196218 (9.28999)

Loop time of 0.159871 on 1 procs for 164 steps with 511 atoms

Minimization stats:
  Stopping criterion = force tolerance
  Energy initial, next-to-last, final =
  Force two-norm initial, final = 0.444064 0.0060289
  Force max component initial, final = 0.0755134 0.000626694
  Final line search alpha, max atom move = 0 0
  Iterations, force evaluations = 164 164

Pair  time (%) = 0.144372 (90.3054)
Neigh time (%) = 0 (0)
Comm  time (%) = 0.00131822 (0.824549)
Outpt time (%) = 0.0010488 (0.656031)
Other time (%) = 0.0131319 (8.21403)

Loop time of 0.00206208 on 1 procs for 1 steps with 511 atoms

Minimization stats:
  Stopping criterion = force tolerance
  Energy initial, next-to-last, final =
  Force two-norm initial, final = 0.0060289 0.0060289
  Force max component initial, final = 0.000626694 0.000626694
  Final line search alpha, max atom move = 0 0
  Iterations, force evaluations = 1 1

Pair  time (%) = 0.00184917 (89.6751)
Neigh time (%) = 0 (0)
Comm  time (%) = 1.4782e-05 (0.716846)
Outpt time (%) = 0 (0)
Other time (%) = 0.000198126 (9.60805)

Loop time of 0.168499 on 1 procs for 172 steps with 511 atoms

Minimization stats:
  Stopping criterion = force tolerance
  Energy initial, next-to-last, final =
  Force two-norm initial, final = 0.516397 0.00970077
  Force max component initial, final = 0.0654447 0.000833441
  Final line search alpha, max atom move = 0 0
  Iterations, force evaluations = 172 172

Pair  time (%) = 0.152679 (90.6115)
Neigh time (%) = 0 (0)
Comm  time (%) = 0.00141287 (0.838503)
Outpt time (%) = 0.00112224 (0.66602)
Other time (%) = 0.0132844 (7.88399)

Loop time of 0.040801 on 1 procs for 41 steps with 511 atoms

Minimization stats:
  Stopping criterion = force tolerance
  Energy initial, next-to-last, final =
  Force two-norm initial, final = 0.0100035 0.00999939
  Force max component initial, final = 0.000782275 0.000782053
  Final line search alpha, max atom move = 0 0
  Iterations, force evaluations = 41 41

Pair  time (%) = 0.0367696 (90.1193)
Neigh time (%) = 0 (0)
Comm  time (%) = 0.000338554 (0.829769)
Outpt time (%) = 0.000263929 (0.646869)
Other time (%) = 0.00342894 (8.40404)

Loop time of 0.157561 on 1 procs for 158 steps with 511 atoms

Minimization stats:
  Stopping criterion = force tolerance
  Energy initial, next-to-last, final =
  Force two-norm initial, final = 0.408795 0.00707064
  Force max component initial, final = 0.0489632 0.000765822
  Final line search alpha, max atom move = 0 0
  Iterations, force evaluations = 158 158

Pair  time (%) = 0.141021 (89.5023)
Neigh time (%) = 0 (0)
Comm  time (%) = 0.00129128 (0.819539)
Outpt time (%) = 0.00102425 (0.650063)
Other time (%) = 0.0142248 (9.0281)

Loop time of 0.00212193 on 1 procs for 1 steps with 511 atoms

Minimization stats:
  Stopping criterion = force tolerance
  Energy initial, next-to-last, final =
  Force two-norm initial, final = 0.00707064 0.00707064
  Force max component initial, final = 0.000765822 0.000765822
  Final line search alpha, max atom move = 0 0
  Iterations, force evaluations = 1 1

Pair  time (%) = 0.00191307 (90.1573)
Neigh time (%) = 0 (0)
Comm  time (%) = 1.71661e-05 (0.808989)
Outpt time (%) = 0 (0)
Other time (%) = 0.000191689 (9.03371)

Loop time of 0.171 on 1 procs for 172 steps with 511 atoms

Minimization stats:
  Stopping criterion = force tolerance
  Energy initial, next-to-last, final =
  Force two-norm initial, final = 0.44094 0.00879139
  Force max component initial, final = 0.0471691 0.000789307
  Final line search alpha, max atom move = 0 0
  Iterations, force evaluations = 172 172

Pair  time (%) = 0.155042 (90.6677)
Neigh time (%) = 0 (0)
Comm  time (%) = 0.00139594 (0.81634)
Outpt time (%) = 0.00114059 (0.667014)
Other time (%) = 0.0134218 (7.84899)

Loop time of 0.00214386 on 1 procs for 1 steps with 511 atoms

Minimization stats:
  Stopping criterion = force tolerance
  Energy initial, next-to-last, final =
  Force two-norm initial, final = 0.00896876 0.00896876
  Force max component initial, final = 0.000772908 0.000772908
  Final line search alpha, max atom move = 0 0
  Iterations, force evaluations = 1 1

Pair  time (%) = 0.00191212 (89.1904)
Neigh time (%) = 0 (0)
Comm  time (%) = 1.69277e-05 (0.789591)
Outpt time (%) = 0 (0)
Other time (%) = 0.000214815 (10.02)

Loop time of 0.175805 on 1 procs for 181 steps with 511 atoms

Minimization stats:
  Stopping criterion = force tolerance
  Energy initial, next-to-last, final =
  Force two-norm initial, final = 0.416059 0.00652415
  Force max component initial, final = 0.0620187 0.000597394
  Final line search alpha, max atom move = 0 0
  Iterations, force evaluations = 181 181

Pair  time (%) = 0.159012 (90.4481)
Neigh time (%) = 0 (0)
Comm  time (%) = 0.0014863 (0.845426)
Outpt time (%) = 0.00118923 (0.676449)
Other time (%) = 0.0141172 (8.03005)

Loop time of 0.00207496 on 1 procs for 1 steps with 511 atoms

Minimization stats:
  Stopping criterion = force tolerance
  Energy initial, next-to-last, final =
  Force two-norm initial, final = 0.00652415 0.00652415
  Force max component initial, final = 0.000597394 0.000597394
  Final line search alpha, max atom move = 0 0
  Iterations, force evaluations = 1 1

Pair  time (%) = 0.00185108 (89.2106)
Neigh time (%) = 0 (0)
Comm  time (%) = 1.62125e-05 (0.78134)
Outpt time (%) = 0 (0)
Other time (%) = 0.000207663 (10.008)

Loop time of 0.187819 on 1 procs for 192 steps with 511 atoms

Minimization stats:
  Stopping criterion = force tolerance
  Energy initial, next-to-last, final =
  Force two-norm initial, final = 0.444174 0.0098442
  Force max component initial, final = 0.0705226 0.000946473
  Final line search alpha, max atom move = 0 0
  Iterations, force evaluations = 192 192

Pair  time (%) = 0.169705 (90.3557)
Neigh time (%) = 0 (0)
Comm  time (%) = 0.00155497 (0.827907)
Outpt time (%) = 0.00127292 (0.677736)
Other time (%) = 0.015286 (8.13867)

Loop time of 0.144749 on 1 procs for 149 steps with 511 atoms

Minimization stats:
  Stopping criterion = force tolerance
  Energy initial, next-to-last, final =
  Force two-norm initial, final = 0.0151109 0.00846635
  Force max component initial, final = 0.00123145 0.000949348
  Final line search alpha, max atom move = 0 0
  Iterations, force evaluations = 149 149

Pair  time (%) = 0.13068 (90.2807)
Neigh time (%) = 0 (0)
Comm  time (%) = 0.00119114 (0.8229)
Outpt time (%) = 0.000975609 (0.674001)
Other time (%) = 0.0119019 (8.22241)

Loop time of 0.169771 on 1 procs for 175 steps with 511 atoms

Minimization stats:
  Stopping criterion = force tolerance
  Energy initial, next-to-last, final =
  Force two-norm initial, final = 0.51185 0.00835275
  Force max component initial, final = 0.072409 0.000705745
  Final line search alpha, max atom move = 0 0
  Iterations, force evaluations = 175 175

Pair  time (%) = 0.154093 (90.7652)
Neigh time (%) = 0 (0)
Comm  time (%) = 0.00143576 (0.845702)
Outpt time (%) = 0.00112128 (0.660468)
Other time (%) = 0.0131209 (7.72858)

Loop time of 0.00209785 on 1 procs for 1 steps with 511 atoms

Minimization stats:
  Stopping criterion = force tolerance
  Energy initial, next-to-last, final =
  Force two-norm initial, final = 0.00813018 0.00813018
  Force max component initial, final = 0.000708846 0.000708846
  Final line search alpha, max atom move = 0 0
  Iterations, force evaluations = 1 1

Pair  time (%) = 0.00184608 (87.9986)
Neigh time (%) = 0 (0)
Comm  time (%) = 1.4782e-05 (0.704626)
Outpt time (%) = 0 (0)
Other time (%) = 0.000236988 (11.2967)

Loop time of 0.151467 on 1 procs for 154 steps with 511 atoms

Minimization stats:
  Stopping criterion = force tolerance
  Energy initial, next-to-last, final =
  Force two-norm initial, final = 0.375735 0.00677355
  Force max component initial, final = 0.0342566 0.00057647
  Final line search alpha, max atom move = 0 0
  Iterations, force evaluations = 154 154

Pair  time (%) = 0.137317 (90.6579)
Neigh time (%) = 0 (0)
Comm  time (%) = 0.00122452 (0.808438)
Outpt time (%) = 0.00099802 (0.658902)
Other time (%) = 0.0119276 (7.87472)

Loop time of 0.0020659 on 1 procs for 1 steps with 511 atoms

Minimization stats:
  Stopping criterion = force tolerance
  Energy initial, next-to-last, final =
  Force two-norm initial, final = 0.00677355 0.00677355
  Force max component initial, final = 0.00057647 0.00057647
  Final line search alpha, max atom move = 0 0
  Iterations, force evaluations = 1 1

Pair  time (%) = 0.00184917 (89.5095)
Neigh time (%) = 0 (0)
Comm  time (%) = 1.43051e-05 (0.692441)
Outpt time (%) = 0 (0)
Other time (%) = 0.000202417 (9.79804)

Loop time of 0.158759 on 1 procs for 163 steps with 511 atoms

Minimization stats:
  Stopping criterion = force tolerance
  Energy initial, next-to-last, final =
  Force two-norm initial, final = 0.336793 0.0063977
  Force max component initial, final = 0.0474694 0.000537403
  Final line search alpha, max atom move = 0 0
  Iterations, force evaluations = 163 163

Pair  time (%) = 0.143671 (90.4961)
Neigh time (%) = 0 (0)
Comm  time (%) = 0.00132155 (0.832427)
Outpt time (%) = 0.00106049 (0.667984)
Other time (%) = 0.0127063 (8.0035)

Loop time of 0.00206304 on 1 procs for 1 steps with 511 atoms

Minimization stats:
  Stopping criterion = force tolerance
  Energy initial, next-to-last, final =
  Force two-norm initial, final = 0.0063977 0.0063977
  Force max component initial, final = 0.000537403 0.000537403
  Final line search alpha, max atom move = 0 0
  Iterations, force evaluations = 1 1

Pair  time (%) = 0.00184989 (89.6683)
Neigh time (%) = 0 (0)
Comm  time (%) = 1.66893e-05 (0.808968)
Outpt time (%) = 0 (0)
Other time (%) = 0.000196457 (9.52271)

Loop time of 0.154405 on 1 procs for 158 steps with 511 atoms

Minimization stats:
  Stopping criterion = force tolerance
  Energy initial, next-to-last, final =
  Force two-norm initial, final = 0.314054 0.00758249
  Force max component initial, final = 0.0413709 0.000865145
  Final line search alpha, max atom move = 0 0
  Iterations, force evaluations = 158 158

Pair  time (%) = 0.139652 (90.4455)
Neigh time (%) = 0 (0)
Comm  time (%) = 0.0012815 (0.829959)
Outpt time (%) = 0.000990152 (0.641269)
Other time (%) = 0.012481 (8.08326)

Loop time of 0.002074 on 1 procs for 1 steps with 511 atoms

Minimization stats:
  Stopping criterion = force tolerance
  Energy initial, next-to-last, final =
  Force two-norm initial, final = 0.00758249 0.00758249
  Force max component initial, final = 0.000865145 0.000865145
  Final line search alpha, max atom move = 0 0
  Iterations, force evaluations = 1 1

Pair  time (%) = 0.00184989 (89.1942)
Neigh time (%) = 0 (0)
Comm  time (%) = 1.78814e-05 (0.862168)
Outpt time (%) = 0 (0)
Other time (%) = 0.000206232 (9.94367)

Loop time of 0.167671 on 1 procs for 173 steps with 511 atoms

Minimization stats:
  Stopping criterion = force tolerance
  Energy initial, next-to-last, final =
  Force two-norm initial, final = 0.318708 0.00925545
  Force max component initial, final = 0.0331928 0.000838572
  Final line search alpha, max atom move = 0 0
  Iterations, force evaluations = 173 173

Pair  time (%) = 0.152005 (90.6567)
Neigh time (%) = 0 (0)
Comm  time (%) = 0.00140166 (0.835959)
Outpt time (%) = 0.001122 (0.669165)
Other time (%) = 0.0131423 (7.83817)

Loop time of 0.00207305 on 1 procs for 1 steps with 511 atoms

Minimization stats:
  Stopping criterion = force tolerance
  Energy initial, next-to-last, final =
  Force two-norm initial, final = 0.00943823 0.00943823
  Force max component initial, final = 0.000810831 0.000810831
  Final line search alpha, max atom move = 0 0
  Iterations, force evaluations = 1 1

Pair  time (%) = 0.00185084 (89.2812)
Neigh time (%) = 0 (0)
Comm  time (%) = 1.66893e-05 (0.80506)
Outpt time (%) = 0 (0)
Other time (%) = 0.000205517 (9.91374)

Loop time of 0.189468 on 1 procs for 195 steps with 511 atoms

Minimization stats:
  Stopping criterion = force tolerance
  Energy initial, next-to-last, final =
  Force two-norm initial, final = 0.569977 0.00604391
  Force max component initial, final = 0.0583255 0.000429058
  Final line search alpha, max atom move = 0 0
  Iterations, force evaluations = 195 195

Pair  time (%) = 0.171707 (90.626)
Neigh time (%) = 0 (0)
Comm  time (%) = 0.00158072 (0.834292)
Outpt time (%) = 0.00124383 (0.656486)
Other time (%) = 0.0149362 (7.88324)

Loop time of 0.00206208 on 1 procs for 1 steps with 511 atoms

Minimization stats:
  Stopping criterion = force tolerance
  Energy initial, next-to-last, final =
  Force two-norm initial, final = 0.00604391 0.00604391
  Force max component initial, final = 0.000429058 0.000429058
  Final line search alpha, max atom move = 0 0
  Iterations, force evaluations = 1 1

Pair  time (%) = 0.00185013 (89.7214)
Neigh time (%) = 0 (0)
Comm  time (%) = 1.71661e-05 (0.832466)
Outpt time (%) = 0 (0)
Other time (%) = 0.000194788 (9.44618)

Loop time of 0.165023 on 1 procs for 166 steps with 511 atoms

Minimization stats:
  Stopping criterion = force tolerance
  Energy initial, next-to-last, final =
  Force two-norm initial, final = 0.342119 0.00633855
  Force max component initial, final = 0.0320861 0.000516644
  Final line search alpha, max atom move = 0 0
  Iterations, force evaluations = 166 166

Pair  time (%) = 0.14916 (90.3876)
Neigh time (%) = 0 (0)
Comm  time (%) = 0.00135708 (0.822357)
Outpt time (%) = 0.00112104 (0.679326)
Other time (%) = 0.0133846 (8.11073)

Loop time of 0.00213313 on 1 procs for 1 steps with 511 atoms

Minimization stats:
  Stopping criterion = force tolerance
  Energy initial, next-to-last, final =
  Force two-norm initial, final = 0.00633855 0.00633855
  Force max component initial, final = 0.000516644 0.000516644
  Final line search alpha, max atom move = 0 0
  Iterations, force evaluations = 1 1

Pair  time (%) = 0.00191498 (89.7731)
Neigh time (%) = 0 (0)
Comm  time (%) = 1.66893e-05 (0.782385)
Outpt time (%) = 0 (0)
Other time (%) = 0.000201464 (9.44451)

Loop time of 0.161436 on 1 procs for 163 steps with 511 atoms

Minimization stats:
  Stopping criterion = force tolerance
  Energy initial, next-to-last, final =
  Force two-norm initial, final = 0.34246 0.0099442
  Force max component initial, final = 0.0403646 0.00108433
  Final line search alpha, max atom move = 0 0
  Iterations, force evaluations = 163 163

Pair  time (%) = 0.146661 (90.8476)
Neigh time (%) = 0 (0)
Comm  time (%) = 0.00131083 (0.811979)
Outpt time (%) = 0.00105834 (0.655579)
Other time (%) = 0.0124061 (7.68486)

Loop time of 0.137421 on 1 procs for 137 steps with 511 atoms

Minimization stats:
  Stopping criterion = force tolerance
  Energy initial, next-to-last, final =
  Force two-norm initial, final = 0.011405 0.00922687
  Force max component initial, final = 0.000908399 0.00133541
  Final line search alpha, max atom move = 0 0
  Iterations, force evaluations = 137 137

Pair  time (%) = 0.124254 (90.4182)
Neigh time (%) = 0 (0)
Comm  time (%) = 0.00117922 (0.858107)
Outpt time (%) = 0.000864029 (0.628746)
Other time (%) = 0.0111241 (8.09494)

Loop time of 0.167042 on 1 procs for 169 steps with 511 atoms

Minimization stats:
  Stopping criterion = force tolerance
  Energy initial, next-to-last, final =
  Force two-norm initial, final = 0.450456 0.00558478
  Force max component initial, final = 0.0680572 0.000504366
  Final line search alpha, max atom move = 0 0
  Iterations, force evaluations = 169 169

Pair  time (%) = 0.150906 (90.3401)
Neigh time (%) = 0 (0)
Comm  time (%) = 0.0013566 (0.812132)
Outpt time (%) = 0.00105762 (0.633149)
Other time (%) = 0.0137219 (8.21467)

Loop time of 0.00224519 on 1 procs for 1 steps with 511 atoms

Minimization stats:
  Stopping criterion = force tolerance
  Energy initial, next-to-last, final =
  Force two-norm initial, final = 0.00558478 0.00558478
  Force max component initial, final = 0.000504366 0.000504366
  Final line search alpha, max atom move = 0 0
  Iterations, force evaluations = 1 1

Pair  time (%) = 0.00201917 (89.9331)
Neigh time (%) = 0 (0)
Comm  time (%) = 1.66893e-05 (0.743337)
Outpt time (%) = 0 (0)
Other time (%) = 0.000209332 (9.32356)

Loop time of 0.151089 on 1 procs for 155 steps with 511 atoms

Minimization stats:
  Stopping criterion = force tolerance
  Energy initial, next-to-last, final =
  Force two-norm initial, final = 0.225114 0.00509785
  Force max component initial, final = 0.0338543 0.000389173
  Final line search alpha, max atom move = 0 0
  Iterations, force evaluations = 155 155

Pair  time (%) = 0.136178 (90.1313)
Neigh time (%) = 0 (0)
Comm  time (%) = 0.0012548 (0.830502)
Outpt time (%) = 0.00100422 (0.664654)
Other time (%) = 0.0126514 (8.37351)

Loop time of 0.0021019 on 1 procs for 1 steps with 511 atoms

Minimization stats:
  Stopping criterion = force tolerance
  Energy initial, next-to-last, final =
  Force two-norm initial, final = 0.00509785 0.00509785
  Force max component initial, final = 0.000389173 0.000389173
  Final line search alpha, max atom move = 0 0
  Iterations, force evaluations = 1 1

Pair  time (%) = 0.00187016 (88.9746)
Neigh time (%) = 0 (0)
Comm  time (%) = 1.52588e-05 (0.725953)
Outpt time (%) = 0 (0)
Other time (%) = 0.000216484 (10.2995)

Loop time of 0.163813 on 1 procs for 169 steps with 511 atoms

Minimization stats:
  Stopping criterion = force tolerance
  Energy initial, next-to-last, final =
  Force two-norm initial, final = 0.354822 0.00866808
  Force max component initial, final = 0.05243 0.000859367
  Final line search alpha, max atom move = 0 0
  Iterations, force evaluations = 169 169

Pair  time (%) = 0.148237 (90.4918)
Neigh time (%) = 0 (0)
Comm  time (%) = 0.00137401 (0.838766)
Outpt time (%) = 0.00104737 (0.639371)
Other time (%) = 0.0131543 (8.03006)

Loop time of 0.00219703 on 1 procs for 1 steps with 511 atoms

Minimization stats:
  Stopping criterion = force tolerance
  Energy initial, next-to-last, final =
  Force two-norm initial, final = 0.00866808 0.00866808
  Force max component initial, final = 0.000859367 0.000859367
  Final line search alpha, max atom move = 0 0
  Iterations, force evaluations = 1 1

Pair  time (%) = 0.0019846 (90.331)
Neigh time (%) = 0 (0)
Comm  time (%) = 1.4782e-05 (0.672816)
Outpt time (%) = 0 (0)
Other time (%) = 0.000197649 (8.9962)

Loop time of 0.167518 on 1 procs for 169 steps with 511 atoms

Minimization stats:
  Stopping criterion = force tolerance
  Energy initial, next-to-last, final =
  Force two-norm initial, final = 0.344674 0.00396779
  Force max component initial, final = 0.0408801 0.000350596
  Final line search alpha, max atom move = 0 0
  Iterations, force evaluations = 169 169

Pair  time (%) = 0.151441 (90.4027)
Neigh time (%) = 0 (0)
Comm  time (%) = 0.00148773 (0.888102)
Outpt time (%) = 0.00105309 (0.628645)
Other time (%) = 0.0135365 (8.08059)

Loop time of 0.00227714 on 1 procs for 1 steps with 511 atoms

Minimization stats:
  Stopping criterion = force tolerance
  Energy initial, next-to-last, final =
  Force two-norm initial, final = 0.00396779 0.00396779
  Force max component initial, final = 0.000350596 0.000350596
  Final line search alpha, max atom move = 0 0
  Iterations, force evaluations = 1 1

Pair  time (%) = 0.00204873 (89.9696)
Neigh time (%) = 0 (0)
Comm  time (%) = 1.69277e-05 (0.743378)
Outpt time (%) = 0 (0)
Other time (%) = 0.000211477 (9.28699)

Loop time of 0.183207 on 1 procs for 183 steps with 511 atoms

Minimization stats:
  Stopping criterion = force tolerance
  Energy initial, next-to-last, final =
  Force two-norm initial, final = 0.378533 0.00271411
  Force max component initial, final = 0.0398322 0.000242302
  Final line search alpha, max atom move = 0 0
  Iterations, force evaluations = 183 183

Pair  time (%) = 0.166637 (90.9557)
Neigh time (%) = 0 (0)
Comm  time (%) = 0.001477 (0.806193)
Outpt time (%) = 0.00118446 (0.646516)
Other time (%) = 0.0139084 (7.59162)

Loop time of 0.00223398 on 1 procs for 1 steps with 511 atoms

Minimization stats:
  Stopping criterion = force tolerance
  Energy initial, next-to-last, final =
  Force two-norm initial, final = 0.00271411 0.00271411
  Force max component initial, final = 0.000242302 0.000242302
  Final line search alpha, max atom move = 0 0
  Iterations, force evaluations = 1 1

Pair  time (%) = 0.00192904 (86.3501)
Neigh time (%) = 0 (0)
Comm  time (%) = 1.4782e-05 (0.661686)
Outpt time (%) = 0 (0)
Other time (%) = 0.000290155 (12.9883)

Loop time of 0.160011 on 1 procs for 162 steps with 511 atoms

Minimization stats:
  Stopping criterion = force tolerance
  Energy initial, next-to-last, final =
  Force two-norm initial, final = 0.311234 0.00952052
  Force max component initial, final = 0.0327328 0.000822605
  Final line search alpha, max atom move = 0 0
  Iterations, force evaluations = 162 162

Pair  time (%) = 0.14547 (90.9124)
Neigh time (%) = 0 (0)
Comm  time (%) = 0.0013721 (0.857503)
Outpt time (%) = 0.00107694 (0.673039)
Other time (%) = 0.0120921 (7.55705)

Loop time of 0.00215006 on 1 procs for 1 steps with 511 atoms

Minimization stats:
  Stopping criterion = force tolerance
  Energy initial, next-to-last, final =
  Force two-norm initial, final = 0.00985083 0.00985083
  Force max component initial, final = 0.000904224 0.000904224
  Final line search alpha, max atom move = 0 0
  Iterations, force evaluations = 1 1

Pair  time (%) = 0.00193501 (89.9978)
Neigh time (%) = 0 (0)
Comm  time (%) = 1.38283e-05 (0.643158)
Outpt time (%) = 0 (0)
Other time (%) = 0.000201225 (9.35906)

Loop time of 0.141095 on 1 procs for 142 steps with 511 atoms

Minimization stats:
  Stopping criterion = force tolerance
  Energy initial, next-to-last, final =
  Force two-norm initial, final = 0.244804 0.00769169
  Force max component initial, final = 0.0243447 0.00100171
  Final line search alpha, max atom move = 0 0
  Iterations, force evaluations = 142 142

Pair  time (%) = 0.128144 (90.821)
Neigh time (%) = 0 (0)
Comm  time (%) = 0.00121498 (0.861108)
Outpt time (%) = 0.000941515 (0.667291)
Other time (%) = 0.0107946 (7.65061)

Loop time of 0.00215292 on 1 procs for 1 steps with 511 atoms

Minimization stats:
  Stopping criterion = force tolerance
  Energy initial, next-to-last, final =
  Force two-norm initial, final = 0.00769169 0.00769169
  Force max component initial, final = 0.00100171 0.00100171
  Final line search alpha, max atom move = 0 0
  Iterations, force evaluations = 1 1

Pair  time (%) = 0.00193381 (89.8228)
Neigh time (%) = 0 (0)
Comm  time (%) = 1.57356e-05 (0.730897)
Outpt time (%) = 0 (0)
Other time (%) = 0.000203371 (9.44629)

Loop time of 0.154929 on 1 procs for 159 steps with 511 atoms

Minimization stats:
  Stopping criterion = force tolerance
  Energy initial, next-to-last, final =
  Force two-norm initial, final = 0.326303 0.00695975
  Force max component initial, final = 0.0551335 0.00051261
  Final line search alpha, max atom move = 0 0
  Iterations, force evaluations = 159 159

Pair  time (%) = 0.141074 (91.0574)
Neigh time (%) = 0 (0)
Comm  time (%) = 0.0012846 (0.829154)
Outpt time (%) = 0.000987291 (0.637254)
Other time (%) = 0.0115829 (7.47624)

Loop time of 0.00219584 on 1 procs for 1 steps with 511 atoms

Minimization stats:
  Stopping criterion = force tolerance
  Energy initial, next-to-last, final =
  Force two-norm initial, final = 0.00695975 0.00695975
  Force max component initial, final = 0.00051261 0.00051261
  Final line search alpha, max atom move = 0 0
  Iterations, force evaluations = 1 1

Pair  time (%) = 0.00197887 (90.1194)
Neigh time (%) = 0 (0)
Comm  time (%) = 1.90735e-05 (0.868621)
Outpt time (%) = 0 (0)
Other time (%) = 0.000197887 (9.01194)

Loop time of 0.195716 on 1 procs for 198 steps with 511 atoms

Minimization stats:
  Stopping criterion = force tolerance
  Energy initial, next-to-last, final =
  Force two-norm initial, final = 1.10218 0.00991086
  Force max component initial, final = 0.243689 0.000764141
  Final line search alpha, max atom move = 0 0
  Iterations, force evaluations = 198 198

Pair  time (%) = 0.179228 (91.5756)
Neigh time (%) = 0 (0)
Comm  time (%) = 0.00159526 (0.815089)
Outpt time (%) = 0.00124979 (0.638574)
Other time (%) = 0.0136428 (6.97071)

Loop time of 0.0674729 on 1 procs for 67 steps with 511 atoms

Minimization stats:
  Stopping criterion = force tolerance
  Energy initial, next-to-last, final =
  Force two-norm initial, final = 0.0100874 0.00999068
  Force max component initial, final = 0.000875964 0.000863406
  Final line search alpha, max atom move = 0 0
  Iterations, force evaluations = 67 67

Pair  time (%) = 0.0617516 (91.5206)
Neigh time (%) = 0 (0)
Comm  time (%) = 0.000549316 (0.814129)
Outpt time (%) = 0.000459433 (0.680914)
Other time (%) = 0.00471258 (6.9844)

Loop time of 0.152909 on 1 procs for 152 steps with 511 atoms

Minimization stats:
  Stopping criterion = force tolerance
  Energy initial, next-to-last, final =
  Force two-norm initial, final = 0.263548 0.00525831
  Force max component initial, final = 0.043439 0.000504567
  Final line search alpha, max atom move = 0 0
  Iterations, force evaluations = 152 152

Pair  time (%) = 0.139029 (90.9227)
Neigh time (%) = 0 (0)
Comm  time (%) = 0.00123119 (0.80518)
Outpt time (%) = 0.000988483 (0.646452)
Other time (%) = 0.0116603 (7.62567)

Loop time of 0.0020771 on 1 procs for 1 steps with 511 atoms

Minimization stats:
  Stopping criterion = force tolerance
  Energy initial, next-to-last, final =
  Force two-norm initial, final = 0.00525831 0.00525831
  Force max component initial, final = 0.000504567 0.000504567
  Final line search alpha, max atom move = 0 0
  Iterations, force evaluations = 1 1

Pair  time (%) = 0.00185108 (89.1185)
Neigh time (%) = 0 (0)
Comm  time (%) = 1.45435e-05 (0.700184)
Outpt time (%) = 0 (0)
Other time (%) = 0.000211477 (10.1814)

Loop time of 0.171276 on 1 procs for 175 steps with 511 atoms

Minimization stats:
  Stopping criterion = force tolerance
  Energy initial, next-to-last, final =
  Force two-norm initial, final = 0.370323 0.00545406
  Force max component initial, final = 0.0384054 0.000453125
  Final line search alpha, max atom move = 0 0
  Iterations, force evaluations = 175 175

Pair  time (%) = 0.154355 (90.1205)
Neigh time (%) = 0 (0)
Comm  time (%) = 0.00139642 (0.815302)
Outpt time (%) = 0.00110745 (0.64659)
Other time (%) = 0.0144174 (8.41764)

Loop time of 0.00207901 on 1 procs for 1 steps with 511 atoms

Minimization stats:
  Stopping criterion = force tolerance
  Energy initial, next-to-last, final =
  Force two-norm initial, final = 0.00545406 0.00545406
  Force max component initial, final = 0.000453125 0.000453125
  Final line search alpha, max atom move = 0 0
  Iterations, force evaluations = 1 1

Pair  time (%) = 0.00185227 (89.094)
Neigh time (%) = 0 (0)
Comm  time (%) = 1.66893e-05 (0.802752)
Outpt time (%) = 0 (0)
Other time (%) = 0.000210047 (10.1032)

Loop time of 0.169301 on 1 procs for 172 steps with 511 atoms

Minimization stats:
  Stopping criterion = force tolerance
  Energy initial, next-to-last, final =
  Force two-norm initial, final = 0.397202 0.00546314
  Force max component initial, final = 0.0607124 0.000459025
  Final line search alpha, max atom move = 0 0
  Iterations, force evaluations = 172 172

Pair  time (%) = 0.152452 (90.0482)
Neigh time (%) = 0 (0)
Comm  time (%) = 0.00146413 (0.864808)
Outpt time (%) = 0.0011549 (0.682157)
Other time (%) = 0.0142295 (8.40487)

Loop time of 0.002141 on 1 procs for 1 steps with 511 atoms

Minimization stats:
  Stopping criterion = force tolerance
  Energy initial, next-to-last, final =
  Force two-norm initial, final = 0.00546314 0.00546314
  Force max component initial, final = 0.000459025 0.000459025
  Final line search alpha, max atom move = 0 0
  Iterations, force evaluations = 1 1

Pair  time (%) = 0.00192499 (89.9109)
Neigh time (%) = 0 (0)
Comm  time (%) = 1.52588e-05 (0.712695)
Outpt time (%) = 0 (0)
Other time (%) = 0.000200748 (9.37639)

Loop time of 39.1789 on 1 procs for 22 steps with 511 atoms

TAD stats:
  NEB      time (%) = 18.1759 (46.3922)
  Dynamics time (%) = 0 (0)
  Quench   time (%) = 0 (0)
  Comm     time (%) = 0 (0)
  Output   time (%) = 0 (0)
  Other    time (%) = 21.0029 (53.6078)
