LAMMPS (9 Sep 2013)
# SRD diffusion demo - rigid box particles

units		lj
atom_style	sphere
atom_modify	map array first big
dimension	2

# read in clusters of rigid bodies

fix             molprop all property/atom mol
read_data	data.box fix molprop NULL Molecules
  orthogonal box = (-19.1447 -19.1447 -0.5) to (19.1447 19.1447 0.5)
  420 atoms

set		type 1 mass 1.0
  420 settings made for mass
group		big type 1
420 atoms in group big
velocity	big create 1.44 87287 loop geom

# equilibrate big particles

pair_style	soft 1.12
pair_coeff	1 1 0.0
pair_coeff	2 2 0.0 0.0
pair_coeff	1 2 0.0 0.0

variable        prefactor equal ramp(0,60)
fix             soft all adapt 1 pair soft a * * v_prefactor

neighbor	0.3 bin
neigh_modify	delay 0 every 1 check yes

fix		1 big rigid molecule
30 rigid bodies with 420 atoms
fix		2 all enforce2d

#dump		1 all atom 10 dump.box.equil

thermo		100
run		1000
Step Temp E_pair E_mol TotEng Press
0            0            0            0            0    -8.770036
Averages over the last 6 of 11 rows, steps 500 to 1000:
Temp E_pair E_mol TotEng Press
0 17.0787 0 17.0787 0.268841
Loop time of 0.0545385 on 8 procs for 1000 steps with 420 atoms

Pair  time (%) = 0.00437456 (8.02105)
Neigh time (%) = 0.00148079 (2.71512)
Comm  time (%) = 0.0152201 (27.9071)
Outpt time (%) = 0.000281721 (0.516555)
Other time (%) = 0.0331814 (60.8402)

#undump		1
unfix           soft
unfix		1
unfix		2

# add small particles as hi density lattice

region		plane block INF INF INF INF -0.001 0.001 units box
lattice		sq 85.0
Lattice spacing in x,y,z = 0.108465 0.108465 0.108465
create_atoms	2 region plane
Created 124609 atoms

set		type 2 mass 0.1
  124609 settings made for mass
group		small type 2
124609 atoms in group small
velocity	small create 1.0 593849 loop geom

# delete overlaps
# must set 1-2 cutoff to non-zero value

pair_style	lj/cut 2.5
pair_coeff	1 1 1.0 1.0
pair_coeff	2 2 0.0 1.0 0.0
pair_coeff	1 2 0.0 1.0 1.0

delete_atoms	overlap 1.0 small big
Deleted 51030 atoms, new total = 73999

# SRD run

reset_timestep	0

neighbor	0.3 bin
neigh_modify	delay 0 every 1 check yes

communicate	multi group big vel yes
neigh_modify	include big

# no pairwise interactions with small particles

pair_style	lj/cut 2.5
pair_coeff	1 1 1.0 1.0
pair_coeff	2 2 0.0 1.0 0.0
pair_coeff	1 2 0.0 1.0 0.0

# use fix SRD to push small particles out from inside big ones
# if comment out, big particles won't see SRD particles

timestep	0.001

fix		1 big rigid molecule
30 rigid bodies with 420 atoms
fix	        2 small srd 20 big 1.0 0.25 49894 shift yes 54979 		  search 0.2 collision slip inside ignore overlap yes
fix		3 all enforce2d

# diagnostics

compute		tbig big temp/sphere
variable	pebig equal pe*atoms/count(big)
variable	ebig equal etotal*atoms/count(big)
thermo_style	custom step temp f_2[8] etotal v_pebig v_ebig press 		f_2[1] f_2[2] f_2[3] f_2[4] f_2[5] 		f_2[6] f_2[7] f_2[8] f_2[9] f_2[10] f_2[11] f_2[12]

thermo_modify	temp tbig
thermo		1000

#dump		1 all atom 1000 dump.box

#dump		1 all image 1000 image.*.jpg type type zoom 1.6
#dump_modify	1 pad 6 adiam 1 1 adiam 2 0.2

run		100000
SRD info:
  SRD/big particles = 73579 420
  big particle diameter max/min = 1 1
  SRD temperature & lamda = 1 0.0632456
  SRD max distance & max velocity = 0.252982 12.6491
  SRD grid counts: 153 153 1
  SRD grid size: request, actual (xyz) = 0.25, 0.250257 0.250257 1
  SRD per actual grid cell = 4.05573
  SRD viscosity = 0.229297
  big/SRD mass density ratio = 0.196614
  # of rescaled SRD velocities = 0
  ave/max small velocity = 4.19668 7.72762
  ave/max big velocity = 2.12757 5.83591
Step Temp 2[8] TotEng pebig ebig Press 2[1] 2[2] 2[3] 2[4] 2[5] 2[6] 2[7] 2[8] 2[9] 2[10] 2[11] 2[12]
0    27.381112            0   0.25599398    42.234595    45.103092   0.74047865            0            0            0            0            0            0            0            0            0            0            0            0
Averages over the last 51 of 101 rows, steps 50000 to 100000:
Temp 2[8] TotEng pebig ebig Press 2[1] 2[2] 2[3] 2[4] 2[5] 2[6] 2[7] 2[8] 2[9] 2[10] 2[11] 2[12]
1.02144 17815.5 0.238991 42.0003 42.1073 10.5048 9892.31 37.5294 37.5882 0.0588235 56796.3 90440 23409 17815.5 0.868346 0 69 0
Loop time of 61.6618 on 8 procs for 100000 steps with 73999 atoms

Pair  time (%) = 0.679072 (1.10128)
Neigh time (%) = 3.89789 (6.3214)
Comm  time (%) = 3.42736 (5.55832)
Outpt time (%) = 0.0100309 (0.0162676)
Other time (%) = 53.6475 (87.0027)

Please see the log.cite file for references relevant to this simulation
