LAMMPS (1 Feb 2014)
# 2d friction simulation

dimension	2
boundary	p s p

atom_style	atomic
neighbor	0.3 bin
neigh_modify	delay 5

# create geometry

lattice		hex 0.9
Lattice spacing in x,y,z = 1.1327 1.96189 1.1327
region		box block 0 50 0 22 -0.25 0.25
create_box	4 box
Created orthogonal box = (0 0 -0.283174) to (56.6348 43.1615 0.283174)

mass		1 1.0
mass		2 1.0
mass		3 1.0
mass		4 1.0

# atom regions

region          lo-fixed block INF INF INF 1.1 INF INF
region          lo-slab block INF INF INF 7 INF INF
region          above-lo block INF INF INF 7 INF INF side out
region          hi-fixed block INF INF 20.9 INF INF INF
region          hi-slab block INF INF 15 INF INF INF
region          below-hi block INF INF 15 INF INF INF side out
region		lo-asperity sphere 32 7 0 8
region		hi-asperity sphere 18 15 0 8
region		lo-half-sphere intersect 2 lo-asperity above-lo
region		hi-half-sphere intersect 2 hi-asperity below-hi

# create 2 surfaces with asperities

create_atoms	1 region lo-slab
Created 750 atoms
create_atoms	1 region hi-slab
Created 750 atoms
create_atoms	2 region lo-half-sphere
Created 112 atoms
create_atoms	3 region hi-half-sphere
Created 112 atoms

# LJ potentials

pair_style	lj/cut 2.5
pair_coeff	* * 1.0 1.0 2.5

# define groups

group	        lo region lo-slab
750 atoms in group lo
group		lo type 2
862 atoms in group lo
group		hi region hi-slab
750 atoms in group hi
group		hi type 3
862 atoms in group hi
group		lo-fixed region lo-fixed
150 atoms in group lo-fixed
group		hi-fixed region hi-fixed
150 atoms in group hi-fixed
group		boundary union lo-fixed hi-fixed
300 atoms in group boundary
group		mobile subtract all boundary
1424 atoms in group mobile

set		group lo-fixed type 4
  150 settings made for type
set		group hi-fixed type 4
  150 settings made for type

# initial velocities

compute         new mobile temp/partial 0 1 0
velocity	mobile create 0.1 482748 temp new
velocity	hi set 1.0 0.0 0.0 sum yes

# fixes

fix		1 all nve
fix		2 boundary setforce 0.0 0.0 0.0
fix		3 mobile temp/rescale 200 0.1 0.1 0.02 1.0
fix_modify	3 temp new
fix             4 all enforce2d

# Run

timestep	0.0025
thermo		1000
thermo_modify	temp new

#dump		1 all atom 500 dump.friction

#dump		2 all image 500 image.*.jpg type type #		zoom 1.6 adiam 1.5
#dump_modify	2 pad 5

#dump		3 all movie 500 movie.mpg type type #		zoom 1.6 adiam 1.5
#dump_modify	3 pad 5

run		20000
Step Temp E_pair E_mol TotEng Press Volume
0          0.1   -3.1333672            0   -3.0921259   -1.1437867    2444.9333
Averages over the last 11 of 21 rows, steps 10000 to 20000:
Temp E_pair E_mol TotEng Press Volume
0.110716 -3.0308 0 -2.98514 -0.342888 2444.93
Loop time of 1.88423 on 4 procs for 20000 steps with 1724 atoms

Pair  time (%) = 1.16936 (62.0606)
Neigh time (%) = 0.0789706 (4.19113)
Comm  time (%) = 0.359838 (19.0974)
Outpt time (%) = 0.00038904 (0.0206471)
Other time (%) = 0.275667 (14.6302)
