LAMMPS (1 Feb 2014)
# Point dipoles in a 2d box

units		lj
atom_style	hybrid sphere dipole
dimension	2

lattice		sq2 0.7
Lattice spacing in x,y,z = 1.69031 1.69031 1.69031
region		box block 0 10 0 10 -0.5 0.5
create_box	1 box
Created orthogonal box = (0 0 -0.845154) to (16.9031 16.9031 0.845154)
create_atoms	1 box
Created 200 atoms

# need both mass settings due to hybrid atom style

mass		1 1.0
set		group all mass 1.0
  200 settings made for mass
set		group all dipole/random 98934 0.75
  200 settings made for dipole/random

velocity	all create 0.0 87287 mom no

pair_style	lj/cut/dipole/cut 2.5
pair_coeff	* * 1.0 1.0

neighbor	0.3 bin
neigh_modify	delay 0

fix		1 all nve/sphere update dipole
fix		2 all enforce2d

timestep	0.005

compute		erot all erotate/sphere
thermo_style	custom step temp epair c_erot etotal press
thermo		500

#dump		1 all custom 500 dump.dipole id type x y z mux muy

#dump		1 all image 250 image.*.jpg mux type #		zoom 1.6 adiam 1.2
#dump_modify	1 pad 5

run		10000
Step Temp E_pair erot TotEng Press
0            0   -2.1909822            0   -2.1909822   -2.5750971
Averages over the last 11 of 21 rows, steps 5000 to 10000:
Temp E_pair erot TotEng Press
0.432258 -2.77772 0.24209 -2.34762 -0.0673162
Loop time of 0.443194 on 4 procs for 10000 steps with 200 atoms

Pair  time (%) = 0.217619 (49.1024)
Neigh time (%) = 0.00970978 (2.19086)
Comm  time (%) = 0.157952 (35.6394)
Outpt time (%) = 0.000405192 (0.0914255)
Other time (%) = 0.0575083 (12.9759)
