LAMMPS (6 Aug 2014)
# 2d circle of particles inside a box with LJ walls

variable        b index 0

variable	x index 50
variable	y index 20
variable	d index 20
variable	v index 5
variable	w index 2

units		lj
dimension       2
atom_style	atomic
boundary        f f p

lattice		hex 0.85
Lattice spacing in x,y,z = 1.16553 2.01877 1.16553
region		box block 0 $x 0 $y -0.5 0.5
region		box block 0 50 0 $y -0.5 0.5
region		box block 0 50 0 20 -0.5 0.5
create_box	1 box
Created orthogonal box = (0 0 -0.582767) to (58.2767 40.3753 0.582767)
region		circle sphere $(v_d/2+1) $(v_d/2/sqrt(3.0)+1) 0.0 $(v_d/2)
region		circle sphere 11 $(v_d/2/sqrt(3.0)+1) 0.0 $(v_d/2)
region		circle sphere 11 6.7735026918962581988 0.0 $(v_d/2)
region		circle sphere 11 6.7735026918962581988 0.0 10
create_atoms	1 region circle
Created 361 atoms
mass		1 1.0

velocity	all create 0.5 87287 loop geom
velocity        all set $v $w 0 sum yes
velocity        all set 5 $w 0 sum yes
velocity        all set 5 2 0 sum yes

pair_style	lj/cut 2.5
pair_coeff	1 1 10.0 1.0 2.5

neighbor	0.3 bin
neigh_modify	delay 0 every 1 check yes

fix		1 all nve

fix             2 all wall/lj93 xlo 0.0 1 1 2.5 xhi $x 1 1 2.5
fix             2 all wall/lj93 xlo 0.0 1 1 2.5 xhi 50 1 1 2.5
fix             3 all wall/lj93 ylo 0.0 1 1 2.5 yhi $y 1 1 2.5
fix             3 all wall/lj93 ylo 0.0 1 1 2.5 yhi 20 1 1 2.5

comm_style      tiled
fix             10 all balance 50 0.9 rcb

#compute         1 all property/atom proc
#variable        p atom c_1%10
#dump            2 all custom 50 tmp2.dump id v_p x y z

#dump            3 all image 50 image.*.jpg v_p type #                adiam 1.0 view 0 0 zoom 1.8 subbox yes 0.02
#variable        colors string #                "red green blue yellow white #                purple pink orange lime gray"

thermo_style    custom step temp epair press f_10[3] f_10
thermo          100

run		10000
Step Temp E_pair Press 10[3] 10
0    25.701528   -29.143179   -1.2407285    3.2354571    1.0526316
Averages over the last 51 of 101 rows, steps 5000 to 10000:
Temp E_pair Press 10[3] 10
7.04755 -9.51717 0.76918 1.03156 1.01374
Loop time of 0.348356 on 4 procs for 10000 steps with 361 atoms

Pair  time (%) = 0.0763658 (21.9218)
Neigh time (%) = 0.066243 (19.0159)
Comm  time (%) = 0.111105 (31.8942)
Outpt time (%) = 0.00226367 (0.649815)
Other time (%) = 0.0923778 (26.5182)
