LAMMPS (20 Apr 2012)
# REAX potential for Nitroamines system
# .....
dimension      3
boundary  p p p
units		real

atom_style	charge
read_data	data.FC
  orthogonal box = (-82.62 -79.5011 -50) to (82.62 79.5011 50)
  17280 atoms

pair_style	reax/c NULL
pair_coeff	* * ffield.reax.FC 1 6
neighbor	2. bin
neigh_modify	every 10 delay 0 check no
fix             2 all qeq/reax 1 0.0 10.0 1e-6 reax/c

fix		1 all npt temp 100.0 100.0 10.0 iso 1.0 1. 2000.0
timestep   0.2
thermo_style custom step temp epair etotal press
thermo     5000
dump      4 all xyz 5000 dumpnpt.xyz
run        50000
Step Temp E_pair TotEng Press
0            0   -808778.59   -808778.59    58533.588
Averages over the last 6 of 11 rows, steps 25000 to 50000:
Temp E_pair TotEng Press
100.346 -2.28912e+06 -2.28395e+06 -65.2896
Loop time of 59536 on 4 procs for 50000 steps with 17280 atoms

Pair  time (%) = 49797.2 (83.6422)
Neigh time (%) = 120.404 (0.202237)
Comm  time (%) = 1688.07 (2.83538)
Outpt time (%) = 0.322857 (0.000542289)
Other time (%) = 7930 (13.3197)

unfix           1

fix            1  all nvt temp 100.0 100.0 100.0

thermo_style custom step temp epair etotal press
thermo     5000
timestep	0.2

dump		5 all xyz 5000 dumpnvt.xyz
dump            6 all custom 5000 dumpidtype.dat id type x y z
run		1000000
Step Temp E_pair TotEng Press
50000    100.34001   -2289108.8   -2283940.7    556.19247
Averages over the last 101 of 201 rows, steps 550000 to 1050000:
Temp E_pair TotEng Press
100.037 -2.28917e+06 -2.28402e+06 -13.9481
Loop time of 1.18324e+06 on 4 procs for 1000000 steps with 17280 atoms

Pair  time (%) = 989104 (83.593)
Neigh time (%) = 2409.21 (0.203611)
Comm  time (%) = 33773.7 (2.85434)
Outpt time (%) = 20.251 (0.00171149)
Other time (%) = 157931 (13.3474)
